*Heading
*Preprint, echo=NO, model=NO, history=NO, contact=NO
*Part, name=PART-1
*Node
1 , 0.0 , 0.0 , 0.0
2 , 4.0 , 0.0 , 0.0
3 , 8.0 , 0.0 , 0.0
4 , 12.0 , 0.0 , 0.0
5 , 16.0 , 0.0 , 0.0
6 , 20.0 , 0.0 , 0.0
7 , 24.0 , 0.0 , 0.0
8 , 28.0 , 0.0 , 0.0
9 , 32.0 , 0.0 , 0.0
10 , 36.0 , 0.0 , 0.0
11 , 40.0 , 0.0 , 0.0
12 , 44.0 , 0.0 , 0.0
13 , 48.0 , 0.0 , 0.0
14 , 52.0 , 0.0 , 0.0
15 , 56.0 , 0.0 , 0.0
16 , 60.0 , 0.0 , 0.0
17 , 64.0 , 0.0 , 0.0
18 , 68.0 , 0.0 , 0.0
19 , 72.0 , 0.0 , 0.0
20 , 76.0 , 0.0 , 0.0
** ... 55126 like lines cut
*Element, type=S4R
1 , 1 , 2 , 548 , 547
2 , 2 , 3 , 549 , 548
3 , 3 , 4 , 550 , 549
4 , 4 , 5 , 551 , 550
5 , 5 , 6 , 552 , 551
6 , 6 , 7 , 553 , 552
7 , 7 , 8 , 554 , 553
8 , 8 , 9 , 555 , 554
9 , 9 , 10 , 556 , 555
10 , 10 , 11 , 557 , 556
11 , 11 , 12 , 558 , 557
12 , 12 , 13 , 559 , 558
13 , 13 , 14 , 560 , 559
14 , 14 , 15 , 561 , 560
15 , 15 , 16 , 562 , 561
16 , 16 , 17 , 563 , 562
17 , 17 , 18 , 564 , 563
18 , 18 , 19 , 565 , 564
19 , 19 , 20 , 566 , 565
20 , 20 , 21 , 567 , 566
** ... 24480 like lines cut
*Elset, elset=Edge-0
1, 121, 241, 361, 481, 601, 721, 841, 
961, 1081, 1201, 1321, 1441, 1561, 1681, 
1801, 1921, 2041, 2161, 2281, 2401, 2521, 
2641, 2761, 2881, 3001, 3121, 3241, 3361, 
3481, 3601, 3721, 3841, 3961, 4081, 4201, 
4321, 4441, 4561, 4681, 4801, 4921, 5041, 
5161, 5281, 5401, 5521, 5641, 5761, 5881, 
6001, 6121, 6241, 6361, 6481, 6601, 6721, 
6841, 6961, 7081, 7201, 7321, 7441, 7561, 
7681, 7801, 7921, 8041, 8161, 8281, 8401, 
8521, 8641, 8761, 8881, 9001, 9121, 9241, 
9361, 9481, 9601, 9721, 9841, 9961, 10081, 
10201, 10321, 10441, 10561, 10681, 10801, 10921, 
11041, 11161, 11281, 11401, 11521, 11641, 11761, 
11881, 2, 122, 242, 362, 482, 602, 
722, 842, 962, 1082, 1202, 1322, 1442, 
1562, 1682, 1802, 1922, 2042, 2162, 2282, 
2402, 2522, 2642, 2762, 2882, 3002, 3122, 
3242, 3362, 3482, 3602, 3722, 3842, 3962, 
4082, 4202, 4322, 4442, 4562, 4682, 4802, 
** ... 52 like lines cut
*Distribution, name=EdgeDist-0, location=ELEMENT, Table=EdgeDist-0_Table
,     1.
1 , 1.5
121 , 1.5
241 , 1.5
361 , 1.5
481 , 1.5
601 , 1.5
721 , 1.5
841 , 1.5
961 , 1.5
1081 , 1.5
1201 , 1.5
1321 , 1.5
1441 , 1.5
1561 , 1.5
1681 , 1.5
1801 , 1.5
1921 , 1.5
2041 , 1.5
2161 , 1.5
2281 , 1.5
** ... 480 like lines cut
*Shell Section, elset=Edge-0, material=MAT, controls=EC-1, shell thickness=EdgeDist-0
1., 5
*Elset, elset=Edge-1
6, 126, 246, 366, 486, 606, 726, 846, 
966, 1086, 1206, 1326, 1446, 1566, 1686, 
1806, 1926, 2046, 2166, 2286, 2406, 2526, 
2646, 2766, 2886, 3006, 3126, 3246, 3366, 
3486, 3606, 3726, 3846, 3966, 4086, 4206, 
4326, 4446, 4566, 4686, 4806, 4926, 5046, 
5166, 5286, 5406, 5526, 5646, 5766, 5886, 
6006, 6126, 6246, 6366, 6486, 6606, 6726, 
6846, 6966, 7086, 7206, 7326, 7446, 7566, 
7686, 7806, 7926, 8046, 8166, 8286, 8406, 
8526, 8646, 8766, 8886, 9006, 9126, 9246, 
9366, 9486, 9606, 9726, 9846, 9966, 10086, 
10206, 10326, 10446, 10566, 10686, 10806, 10926, 
11046, 11166, 11286, 11406, 11526, 11646, 11766, 
11886, 7, 127, 247, 367, 487, 607, 
727, 847, 967, 1087, 1207, 1327, 1447, 
1567, 1687, 1807, 1927, 2047, 2167, 2287, 
2407, 2527, 2647, 2767, 2887, 3007, 3127, 
3247, 3367, 3487, 3607, 3727, 3847, 3967, 
4087, 4207, 4327, 4447, 4567, 4687, 4807, 
** ... 52 like lines cut
*Distribution, name=EdgeDist-1, location=ELEMENT, Table=EdgeDist-1_Table
,     1.
6 , 1.5
126 , 1.5
246 , 1.5
366 , 1.5
486 , 1.5
606 , 1.5
726 , 1.5
846 , 1.5
966 , 1.5
1086 , 1.5
1206 , 1.5
1326 , 1.5
1446 , 1.5
1566 , 1.5
1686 , 1.5
1806 , 1.5
1926 , 1.5
2046 , 1.5
2166 , 1.5
2286 , 1.5
** ... 480 like lines cut
*Shell Section, elset=Edge-1, material=MAT, controls=EC-1, shell thickness=EdgeDist-1
1., 5
*Elset, elset=Edge-2
11, 131, 251, 371, 491, 611, 731, 851, 
971, 1091, 1211, 1331, 1451, 1571, 1691, 
1811, 1931, 2051, 2171, 2291, 2411, 2531, 
2651, 2771, 2891, 3011, 3131, 3251, 3371, 
3491, 3611, 3731, 3851, 3971, 4091, 4211, 
4331, 4451, 4571, 4691, 4811, 4931, 5051, 
5171, 5291, 5411, 5531, 5651, 5771, 5891, 
6011, 6131, 6251, 6371, 6491, 6611, 6731, 
6851, 6971, 7091, 7211, 7331, 7451, 7571, 
7691, 7811, 7931, 8051, 8171, 8291, 8411, 
8531, 8651, 8771, 8891, 9011, 9131, 9251, 
9371, 9491, 9611, 9731, 9851, 9971, 10091, 
10211, 10331, 10451, 10571, 10691, 10811, 10931, 
11051, 11171, 11291, 11411, 11531, 11651, 11771, 
11891, 12, 132, 252, 372, 492, 612, 
732, 852, 972, 1092, 1212, 1332, 1452, 
1572, 1692, 1812, 1932, 2052, 2172, 2292, 
2412, 2532, 2652, 2772, 2892, 3012, 3132, 
3252, 3372, 3492, 3612, 3732, 3852, 3972, 
4092, 4212, 4332, 4452, 4572, 4692, 4812, 
** ... 52 like lines cut
*Distribution, name=EdgeDist-2, location=ELEMENT, Table=EdgeDist-2_Table
,     1.
11 , 1.5
131 , 1.5
251 , 1.5
371 , 1.5
491 , 1.5
611 , 1.5
731 , 1.5
851 , 1.5
971 , 1.5
1091 , 1.5
1211 , 1.5
1331 , 1.5
1451 , 1.5
1571 , 1.5
1691 , 1.5
1811 , 1.5
1931 , 1.5
2051 , 1.5
2171 , 1.5
2291 , 1.5
** ... 480 like lines cut
*Shell Section, elset=Edge-2, material=MAT, controls=EC-1, shell thickness=EdgeDist-2
1., 5
*Elset, elset=Edge-3
16, 136, 256, 376, 496, 616, 736, 856, 
976, 1096, 1216, 1336, 1456, 1576, 1696, 
1816, 1936, 2056, 2176, 2296, 2416, 2536, 
2656, 2776, 2896, 3016, 3136, 3256, 3376, 
3496, 3616, 3736, 3856, 3976, 4096, 4216, 
4336, 4456, 4576, 4696, 4816, 4936, 5056, 
5176, 5296, 5416, 5536, 5656, 5776, 5896, 
6016, 6136, 6256, 6376, 6496, 6616, 6736, 
6856, 6976, 7096, 7216, 7336, 7456, 7576, 
7696, 7816, 7936, 8056, 8176, 8296, 8416, 
8536, 8656, 8776, 8896, 9016, 9136, 9256, 
9376, 9496, 9616, 9736, 9856, 9976, 10096, 
10216, 10336, 10456, 10576, 10696, 10816, 10936, 
11056, 11176, 11296, 11416, 11536, 11656, 11776, 
11896, 17, 137, 257, 377, 497, 617, 
737, 857, 977, 1097, 1217, 1337, 1457, 
1577, 1697, 1817, 1937, 2057, 2177, 2297, 
2417, 2537, 2657, 2777, 2897, 3017, 3137, 
3257, 3377, 3497, 3617, 3737, 3857, 3977, 
4097, 4217, 4337, 4457, 4577, 4697, 4817, 
** ... 52 like lines cut
*Distribution, name=EdgeDist-3, location=ELEMENT, Table=EdgeDist-3_Table
,     1.
16 , 1.5
136 , 1.5
256 , 1.5
376 , 1.5
496 , 1.5
616 , 1.5
736 , 1.5
856 , 1.5
976 , 1.5
1096 , 1.5
1216 , 1.5
1336 , 1.5
1456 , 1.5
1576 , 1.5
1696 , 1.5
1816 , 1.5
1936 , 1.5
2056 , 1.5
2176 , 1.5
2296 , 1.5
** ... 480 like lines cut
*Shell Section, elset=Edge-3, material=MAT, controls=EC-1, shell thickness=EdgeDist-3
1., 5
*Elset, elset=Edge-4
21, 141, 261, 381, 501, 621, 741, 861, 
981, 1101, 1221, 1341, 1461, 1581, 1701, 
1821, 1941, 2061, 2181, 2301, 2421, 2541, 
2661, 2781, 2901, 3021, 3141, 3261, 3381, 
3501, 3621, 3741, 3861, 3981, 4101, 4221, 
4341, 4461, 4581, 4701, 4821, 4941, 5061, 
5181, 5301, 5421, 5541, 5661, 5781, 5901, 
6021, 6141, 6261, 6381, 6501, 6621, 6741, 
6861, 6981, 7101, 7221, 7341, 7461, 7581, 
7701, 7821, 7941, 8061, 8181, 8301, 8421, 
8541, 8661, 8781, 8901, 9021, 9141, 9261, 
9381, 9501, 9621, 9741, 9861, 9981, 10101, 
10221, 10341, 10461, 10581, 10701, 10821, 10941, 
11061, 11181, 11301, 11421, 11541, 11661, 11781, 
11901, 22, 142, 262, 382, 502, 622, 
742, 862, 982, 1102, 1222, 1342, 1462, 
1582, 1702, 1822, 1942, 2062, 2182, 2302, 
2422, 2542, 2662, 2782, 2902, 3022, 3142, 
3262, 3382, 3502, 3622, 3742, 3862, 3982, 
4102, 4222, 4342, 4462, 4582, 4702, 4822, 
** ... 52 like lines cut
*Distribution, name=EdgeDist-4, location=ELEMENT, Table=EdgeDist-4_Table
,     1.
21 , 0.4283
141 , 0.4283
261 , 0.4283
381 , 0.4283
501 , 0.4283
621 , 0.4283
741 , 0.4283
861 , 0.4283
981 , 0.4283
1101 , 0.4283
1221 , 0.4283
1341 , 0.4283
1461 , 0.4283
1581 , 0.4283
1701 , 0.4283
1821 , 0.4283
1941 , 0.4283
2061 , 0.4283
2181 , 0.4283
2301 , 0.4283
** ... 480 like lines cut
*Shell Section, elset=Edge-4, material=MAT, controls=EC-1, shell thickness=EdgeDist-4
1., 5
*Elset, elset=Edge-5
26, 146, 266, 386, 506, 626, 746, 866, 
986, 1106, 1226, 1346, 1466, 1586, 1706, 
1826, 1946, 2066, 2186, 2306, 2426, 2546, 
2666, 2786, 2906, 3026, 3146, 3266, 3386, 
3506, 3626, 3746, 3866, 3986, 4106, 4226, 
4346, 4466, 4586, 4706, 4826, 4946, 5066, 
5186, 5306, 5426, 5546, 5666, 5786, 5906, 
6026, 6146, 6266, 6386, 6506, 6626, 6746, 
6866, 6986, 7106, 7226, 7346, 7466, 7586, 
7706, 7826, 7946, 8066, 8186, 8306, 8426, 
8546, 8666, 8786, 8906, 9026, 9146, 9266, 
9386, 9506, 9626, 9746, 9866, 9986, 10106, 
10226, 10346, 10466, 10586, 10706, 10826, 10946, 
11066, 11186, 11306, 11426, 11546, 11666, 11786, 
11906, 27, 147, 267, 387, 507, 627, 
747, 867, 987, 1107, 1227, 1347, 1467, 
1587, 1707, 1827, 1947, 2067, 2187, 2307, 
2427, 2547, 2667, 2787, 2907, 3027, 3147, 
3267, 3387, 3507, 3627, 3747, 3867, 3987, 
4107, 4227, 4347, 4467, 4587, 4707, 4827, 
** ... 52 like lines cut
*Distribution, name=EdgeDist-5, location=ELEMENT, Table=EdgeDist-5_Table
,     1.
26 , 0.4283
146 , 0.4283
266 , 0.4283
386 , 0.4283
506 , 0.4283
626 , 0.4283
746 , 0.4283
866 , 0.4283
986 , 0.4283
1106 , 0.4283
1226 , 0.4283
1346 , 0.4283
1466 , 0.4283
1586 , 0.4283
1706 , 0.4283
1826 , 0.4283
1946 , 0.4283
2066 , 0.4283
2186 , 0.4283
2306 , 0.4283
** ... 480 like lines cut
*Shell Section, elset=Edge-5, material=MAT, controls=EC-1, shell thickness=EdgeDist-5
1., 5
*Elset, elset=Edge-6
31, 151, 271, 391, 511, 631, 751, 871, 
991, 1111, 1231, 1351, 1471, 1591, 1711, 
1831, 1951, 2071, 2191, 2311, 2431, 2551, 
2671, 2791, 2911, 3031, 3151, 3271, 3391, 
3511, 3631, 3751, 3871, 3991, 4111, 4231, 
4351, 4471, 4591, 4711, 4831, 4951, 5071, 
5191, 5311, 5431, 5551, 5671, 5791, 5911, 
6031, 6151, 6271, 6391, 6511, 6631, 6751, 
6871, 6991, 7111, 7231, 7351, 7471, 7591, 
7711, 7831, 7951, 8071, 8191, 8311, 8431, 
8551, 8671, 8791, 8911, 9031, 9151, 9271, 
9391, 9511, 9631, 9751, 9871, 9991, 10111, 
10231, 10351, 10471, 10591, 10711, 10831, 10951, 
11071, 11191, 11311, 11431, 11551, 11671, 11791, 
11911, 32, 152, 272, 392, 512, 632, 
752, 872, 992, 1112, 1232, 1352, 1472, 
1592, 1712, 1832, 1952, 2072, 2192, 2312, 
2432, 2552, 2672, 2792, 2912, 3032, 3152, 
3272, 3392, 3512, 3632, 3752, 3872, 3992, 
4112, 4232, 4352, 4472, 4592, 4712, 4832, 
** ... 52 like lines cut
*Distribution, name=EdgeDist-6, location=ELEMENT, Table=EdgeDist-6_Table
,     1.
31 , 0.4283
151 , 0.4283
271 , 0.4283
391 , 0.4283
511 , 0.4283
631 , 0.4283
751 , 0.4283
871 , 0.4283
991 , 0.4283
1111 , 0.4283
1231 , 0.4283
1351 , 0.4283
1471 , 0.4283
1591 , 0.4283
1711 , 0.4283
1831 , 0.4283
1951 , 0.4283
2071 , 0.4283
2191 , 0.4283
2311 , 0.4283
** ... 480 like lines cut
*Shell Section, elset=Edge-6, material=MAT, controls=EC-1, shell thickness=EdgeDist-6
1., 5
*Elset, elset=Edge-7
36, 156, 276, 396, 516, 636, 756, 876, 
996, 1116, 1236, 1356, 1476, 1596, 1716, 
1836, 1956, 2076, 2196, 2316, 2436, 2556, 
2676, 2796, 2916, 3036, 3156, 3276, 3396, 
3516, 3636, 3756, 3876, 3996, 4116, 4236, 
4356, 4476, 4596, 4716, 4836, 4956, 5076, 
5196, 5316, 5436, 5556, 5676, 5796, 5916, 
6036, 6156, 6276, 6396, 6516, 6636, 6756, 
6876, 6996, 7116, 7236, 7356, 7476, 7596, 
7716, 7836, 7956, 8076, 8196, 8316, 8436, 
8556, 8676, 8796, 8916, 9036, 9156, 9276, 
9396, 9516, 9636, 9756, 9876, 9996, 10116, 
10236, 10356, 10476, 10596, 10716, 10836, 10956, 
11076, 11196, 11316, 11436, 11556, 11676, 11796, 
11916, 37, 157, 277, 397, 517, 637, 
757, 877, 997, 1117, 1237, 1357, 1477, 
1597, 1717, 1837, 1957, 2077, 2197, 2317, 
2437, 2557, 2677, 2797, 2917, 3037, 3157, 
3277, 3397, 3517, 3637, 3757, 3877, 3997, 
4117, 4237, 4357, 4477, 4597, 4717, 4837, 
** ... 52 like lines cut
*Distribution, name=EdgeDist-7, location=ELEMENT, Table=EdgeDist-7_Table
,     1.
36 , 0.4283
156 , 0.4283
276 , 0.4283
396 , 0.4283
516 , 0.4283
636 , 0.4283
756 , 0.4283
876 , 0.4283
996 , 0.4283
1116 , 0.4283
1236 , 0.4283
1356 , 0.4283
1476 , 0.4283
1596 , 0.4283
1716 , 0.4283
1836 , 0.4283
1956 , 0.4283
2076 , 0.4283
2196 , 0.4283
2316 , 0.4283
** ... 480 like lines cut
*Shell Section, elset=Edge-7, material=MAT, controls=EC-1, shell thickness=EdgeDist-7
1., 5
*Elset, elset=Edge-8
41, 161, 281, 401, 521, 641, 761, 881, 
1001, 1121, 1241, 1361, 1481, 1601, 1721, 
1841, 1961, 2081, 2201, 2321, 2441, 2561, 
2681, 2801, 2921, 3041, 3161, 3281, 3401, 
3521, 3641, 3761, 3881, 4001, 4121, 4241, 
4361, 4481, 4601, 4721, 4841, 4961, 5081, 
5201, 5321, 5441, 5561, 5681, 5801, 5921, 
6041, 6161, 6281, 6401, 6521, 6641, 6761, 
6881, 7001, 7121, 7241, 7361, 7481, 7601, 
7721, 7841, 7961, 8081, 8201, 8321, 8441, 
8561, 8681, 8801, 8921, 9041, 9161, 9281, 
9401, 9521, 9641, 9761, 9881, 10001, 10121, 
10241, 10361, 10481, 10601, 10721, 10841, 10961, 
11081, 11201, 11321, 11441, 11561, 11681, 11801, 
11921, 42, 162, 282, 402, 522, 642, 
762, 882, 1002, 1122, 1242, 1362, 1482, 
1602, 1722, 1842, 1962, 2082, 2202, 2322, 
2442, 2562, 2682, 2802, 2922, 3042, 3162, 
3282, 3402, 3522, 3642, 3762, 3882, 4002, 
4122, 4242, 4362, 4482, 4602, 4722, 4842, 
** ... 52 like lines cut
*Distribution, name=EdgeDist-8, location=ELEMENT, Table=EdgeDist-8_Table
,     1.
41 , 0.4283
161 , 0.4283
281 , 0.4283
401 , 0.4283
521 , 0.4283
641 , 0.4283
761 , 0.4283
881 , 0.4283
1001 , 0.4283
1121 , 0.4283
1241 , 0.4283
1361 , 0.4283
1481 , 0.4283
1601 , 0.4283
1721 , 0.4283
1841 , 0.4283
1961 , 0.4283
2081 , 0.4283
2201 , 0.4283
2321 , 0.4283
** ... 480 like lines cut
*Shell Section, elset=Edge-8, material=MAT, controls=EC-1, shell thickness=EdgeDist-8
1., 5
*Elset, elset=Edge-9
46, 166, 286, 406, 526, 646, 766, 886, 
1006, 1126, 1246, 1366, 1486, 1606, 1726, 
1846, 1966, 2086, 2206, 2326, 2446, 2566, 
2686, 2806, 2926, 3046, 3166, 3286, 3406, 
3526, 3646, 3766, 3886, 4006, 4126, 4246, 
4366, 4486, 4606, 4726, 4846, 4966, 5086, 
5206, 5326, 5446, 5566, 5686, 5806, 5926, 
6046, 6166, 6286, 6406, 6526, 6646, 6766, 
6886, 7006, 7126, 7246, 7366, 7486, 7606, 
7726, 7846, 7966, 8086, 8206, 8326, 8446, 
8566, 8686, 8806, 8926, 9046, 9166, 9286, 
9406, 9526, 9646, 9766, 9886, 10006, 10126, 
10246, 10366, 10486, 10606, 10726, 10846, 10966, 
11086, 11206, 11326, 11446, 11566, 11686, 11806, 
11926, 47, 167, 287, 407, 527, 647, 
767, 887, 1007, 1127, 1247, 1367, 1487, 
1607, 1727, 1847, 1967, 2087, 2207, 2327, 
2447, 2567, 2687, 2807, 2927, 3047, 3167, 
3287, 3407, 3527, 3647, 3767, 3887, 4007, 
4127, 4247, 4367, 4487, 4607, 4727, 4847, 
** ... 52 like lines cut
*Distribution, name=EdgeDist-9, location=ELEMENT, Table=EdgeDist-9_Table
,     1.
46 , 0.4283
166 , 0.4283
286 , 0.4283
406 , 0.4283
526 , 0.4283
646 , 0.4283
766 , 0.4283
886 , 0.4283
1006 , 0.4283
1126 , 0.4283
1246 , 0.4283
1366 , 0.4283
1486 , 0.4283
1606 , 0.4283
1726 , 0.4283
1846 , 0.4283
1966 , 0.4283
2086 , 0.4283
2206 , 0.4283
2326 , 0.4283
** ... 480 like lines cut
*Shell Section, elset=Edge-9, material=MAT, controls=EC-1, shell thickness=EdgeDist-9
1., 5
*Elset, elset=Edge-10
51, 171, 291, 411, 531, 651, 771, 891, 
1011, 1131, 1251, 1371, 1491, 1611, 1731, 
1851, 1971, 2091, 2211, 2331, 2451, 2571, 
2691, 2811, 2931, 3051, 3171, 3291, 3411, 
3531, 3651, 3771, 3891, 4011, 4131, 4251, 
4371, 4491, 4611, 4731, 4851, 4971, 5091, 
5211, 5331, 5451, 5571, 5691, 5811, 5931, 
6051, 6171, 6291, 6411, 6531, 6651, 6771, 
6891, 7011, 7131, 7251, 7371, 7491, 7611, 
7731, 7851, 7971, 8091, 8211, 8331, 8451, 
8571, 8691, 8811, 8931, 9051, 9171, 9291, 
9411, 9531, 9651, 9771, 9891, 10011, 10131, 
10251, 10371, 10491, 10611, 10731, 10851, 10971, 
11091, 11211, 11331, 11451, 11571, 11691, 11811, 
11931, 52, 172, 292, 412, 532, 652, 
772, 892, 1012, 1132, 1252, 1372, 1492, 
1612, 1732, 1852, 1972, 2092, 2212, 2332, 
2452, 2572, 2692, 2812, 2932, 3052, 3172, 
3292, 3412, 3532, 3652, 3772, 3892, 4012, 
4132, 4252, 4372, 4492, 4612, 4732, 4852, 
** ... 52 like lines cut
*Distribution, name=EdgeDist-10, location=ELEMENT, Table=EdgeDist-10_Table
,     1.
51 , 0.4283
171 , 0.4283
291 , 0.4283
411 , 0.4283
531 , 0.4283
651 , 0.4283
771 , 0.4283
891 , 0.4283
1011 , 0.4283
1131 , 0.4283
1251 , 0.4283
1371 , 0.4283
1491 , 0.4283
1611 , 0.4283
1731 , 0.4283
1851 , 0.4283
1971 , 0.4283
2091 , 0.4283
2211 , 0.4283
2331 , 0.4283
** ... 480 like lines cut
*Shell Section, elset=Edge-10, material=MAT, controls=EC-1, shell thickness=EdgeDist-10
1., 5
*Elset, elset=Edge-11
56, 176, 296, 416, 536, 656, 776, 896, 
1016, 1136, 1256, 1376, 1496, 1616, 1736, 
1856, 1976, 2096, 2216, 2336, 2456, 2576, 
2696, 2816, 2936, 3056, 3176, 3296, 3416, 
3536, 3656, 3776, 3896, 4016, 4136, 4256, 
4376, 4496, 4616, 4736, 4856, 4976, 5096, 
5216, 5336, 5456, 5576, 5696, 5816, 5936, 
6056, 6176, 6296, 6416, 6536, 6656, 6776, 
6896, 7016, 7136, 7256, 7376, 7496, 7616, 
7736, 7856, 7976, 8096, 8216, 8336, 8456, 
8576, 8696, 8816, 8936, 9056, 9176, 9296, 
9416, 9536, 9656, 9776, 9896, 10016, 10136, 
10256, 10376, 10496, 10616, 10736, 10856, 10976, 
11096, 11216, 11336, 11456, 11576, 11696, 11816, 
11936, 57, 177, 297, 417, 537, 657, 
777, 897, 1017, 1137, 1257, 1377, 1497, 
1617, 1737, 1857, 1977, 2097, 2217, 2337, 
2457, 2577, 2697, 2817, 2937, 3057, 3177, 
3297, 3417, 3537, 3657, 3777, 3897, 4017, 
4137, 4257, 4377, 4497, 4617, 4737, 4857, 
** ... 52 like lines cut
*Distribution, name=EdgeDist-11, location=ELEMENT, Table=EdgeDist-11_Table
,     1.
56 , 0.4283
176 , 0.4283
296 , 0.4283
416 , 0.4283
536 , 0.4283
656 , 0.4283
776 , 0.4283
896 , 0.4283
1016 , 0.4283
1136 , 0.4283
1256 , 0.4283
1376 , 0.4283
1496 , 0.4283
1616 , 0.4283
1736 , 0.4283
1856 , 0.4283
1976 , 0.4283
2096 , 0.4283
2216 , 0.4283
2336 , 0.4283
** ... 480 like lines cut
*Shell Section, elset=Edge-11, material=MAT, controls=EC-1, shell thickness=EdgeDist-11
1., 5
*Elset, elset=Edge-12
61, 181, 301, 421, 541, 661, 781, 901, 
1021, 1141, 1261, 1381, 1501, 1621, 1741, 
1861, 1981, 2101, 2221, 2341, 2461, 2581, 
2701, 2821, 2941, 3061, 3181, 3301, 3421, 
3541, 3661, 3781, 3901, 4021, 4141, 4261, 
4381, 4501, 4621, 4741, 4861, 4981, 5101, 
5221, 5341, 5461, 5581, 5701, 5821, 5941, 
6061, 6181, 6301, 6421, 6541, 6661, 6781, 
6901, 7021, 7141, 7261, 7381, 7501, 7621, 
7741, 7861, 7981, 8101, 8221, 8341, 8461, 
8581, 8701, 8821, 8941, 9061, 9181, 9301, 
9421, 9541, 9661, 9781, 9901, 10021, 10141, 
10261, 10381, 10501, 10621, 10741, 10861, 10981, 
11101, 11221, 11341, 11461, 11581, 11701, 11821, 
11941, 62, 182, 302, 422, 542, 662, 
782, 902, 1022, 1142, 1262, 1382, 1502, 
1622, 1742, 1862, 1982, 2102, 2222, 2342, 
2462, 2582, 2702, 2822, 2942, 3062, 3182, 
3302, 3422, 3542, 3662, 3782, 3902, 4022, 
4142, 4262, 4382, 4502, 4622, 4742, 4862, 
** ... 52 like lines cut
*Distribution, name=EdgeDist-12, location=ELEMENT, Table=EdgeDist-12_Table
,     1.
61 , 0.4283
181 , 0.4283
301 , 0.4283
421 , 0.4283
541 , 0.4283
661 , 0.4283
781 , 0.4283
901 , 0.4283
1021 , 0.4283
1141 , 0.4283
1261 , 0.4283
1381 , 0.4283
1501 , 0.4283
1621 , 0.4283
1741 , 0.4283
1861 , 0.4283
1981 , 0.4283
2101 , 0.4283
2221 , 0.4283
2341 , 0.4283
** ... 480 like lines cut
*Shell Section, elset=Edge-12, material=MAT, controls=EC-1, shell thickness=EdgeDist-12
1., 5
*Elset, elset=Edge-13
66, 186, 306, 426, 546, 666, 786, 906, 
1026, 1146, 1266, 1386, 1506, 1626, 1746, 
1866, 1986, 2106, 2226, 2346, 2466, 2586, 
2706, 2826, 2946, 3066, 3186, 3306, 3426, 
3546, 3666, 3786, 3906, 4026, 4146, 4266, 
4386, 4506, 4626, 4746, 4866, 4986, 5106, 
5226, 5346, 5466, 5586, 5706, 5826, 5946, 
6066, 6186, 6306, 6426, 6546, 6666, 6786, 
6906, 7026, 7146, 7266, 7386, 7506, 7626, 
7746, 7866, 7986, 8106, 8226, 8346, 8466, 
8586, 8706, 8826, 8946, 9066, 9186, 9306, 
9426, 9546, 9666, 9786, 9906, 10026, 10146, 
10266, 10386, 10506, 10626, 10746, 10866, 10986, 
11106, 11226, 11346, 11466, 11586, 11706, 11826, 
11946, 67, 187, 307, 427, 547, 667, 
787, 907, 1027, 1147, 1267, 1387, 1507, 
1627, 1747, 1867, 1987, 2107, 2227, 2347, 
2467, 2587, 2707, 2827, 2947, 3067, 3187, 
3307, 3427, 3547, 3667, 3787, 3907, 4027, 
4147, 4267, 4387, 4507, 4627, 4747, 4867, 
** ... 52 like lines cut
*Distribution, name=EdgeDist-13, location=ELEMENT, Table=EdgeDist-13_Table
,     1.
66 , 0.4283
186 , 0.4283
306 , 0.4283
426 , 0.4283
546 , 0.4283
666 , 0.4283
786 , 0.4283
906 , 0.4283
1026 , 0.4283
1146 , 0.4283
1266 , 0.4283
1386 , 0.4283
1506 , 0.4283
1626 , 0.4283
1746 , 0.4283
1866 , 0.4283
1986 , 0.4283
2106 , 0.4283
2226 , 0.4283
2346 , 0.4283
** ... 480 like lines cut
*Shell Section, elset=Edge-13, material=MAT, controls=EC-1, shell thickness=EdgeDist-13
1., 5
*Elset, elset=Edge-14
71, 191, 311, 431, 551, 671, 791, 911, 
1031, 1151, 1271, 1391, 1511, 1631, 1751, 
1871, 1991, 2111, 2231, 2351, 2471, 2591, 
2711, 2831, 2951, 3071, 3191, 3311, 3431, 
3551, 3671, 3791, 3911, 4031, 4151, 4271, 
4391, 4511, 4631, 4751, 4871, 4991, 5111, 
5231, 5351, 5471, 5591, 5711, 5831, 5951, 
6071, 6191, 6311, 6431, 6551, 6671, 6791, 
6911, 7031, 7151, 7271, 7391, 7511, 7631, 
7751, 7871, 7991, 8111, 8231, 8351, 8471, 
8591, 8711, 8831, 8951, 9071, 9191, 9311, 
9431, 9551, 9671, 9791, 9911, 10031, 10151, 
10271, 10391, 10511, 10631, 10751, 10871, 10991, 
11111, 11231, 11351, 11471, 11591, 11711, 11831, 
11951, 72, 192, 312, 432, 552, 672, 
792, 912, 1032, 1152, 1272, 1392, 1512, 
1632, 1752, 1872, 1992, 2112, 2232, 2352, 
2472, 2592, 2712, 2832, 2952, 3072, 3192, 
3312, 3432, 3552, 3672, 3792, 3912, 4032, 
4152, 4272, 4392, 4512, 4632, 4752, 4872, 
** ... 52 like lines cut
*Distribution, name=EdgeDist-14, location=ELEMENT, Table=EdgeDist-14_Table
,     1.
71 , 0.4283
191 , 0.4283
311 , 0.4283
431 , 0.4283
551 , 0.4283
671 , 0.4283
791 , 0.4283
911 , 0.4283
1031 , 0.4283
1151 , 0.4283
1271 , 0.4283
1391 , 0.4283
1511 , 0.4283
1631 , 0.4283
1751 , 0.4283
1871 , 0.4283
1991 , 0.4283
2111 , 0.4283
2231 , 0.4283
2351 , 0.4283
** ... 480 like lines cut
*Shell Section, elset=Edge-14, material=MAT, controls=EC-1, shell thickness=EdgeDist-14
1., 5
*Elset, elset=Edge-15
76, 196, 316, 436, 556, 676, 796, 916, 
1036, 1156, 1276, 1396, 1516, 1636, 1756, 
1876, 1996, 2116, 2236, 2356, 2476, 2596, 
2716, 2836, 2956, 3076, 3196, 3316, 3436, 
3556, 3676, 3796, 3916, 4036, 4156, 4276, 
4396, 4516, 4636, 4756, 4876, 4996, 5116, 
5236, 5356, 5476, 5596, 5716, 5836, 5956, 
6076, 6196, 6316, 6436, 6556, 6676, 6796, 
6916, 7036, 7156, 7276, 7396, 7516, 7636, 
7756, 7876, 7996, 8116, 8236, 8356, 8476, 
8596, 8716, 8836, 8956, 9076, 9196, 9316, 
9436, 9556, 9676, 9796, 9916, 10036, 10156, 
10276, 10396, 10516, 10636, 10756, 10876, 10996, 
11116, 11236, 11356, 11476, 11596, 11716, 11836, 
11956, 77, 197, 317, 437, 557, 677, 
797, 917, 1037, 1157, 1277, 1397, 1517, 
1637, 1757, 1877, 1997, 2117, 2237, 2357, 
2477, 2597, 2717, 2837, 2957, 3077, 3197, 
3317, 3437, 3557, 3677, 3797, 3917, 4037, 
4157, 4277, 4397, 4517, 4637, 4757, 4877, 
** ... 52 like lines cut
*Distribution, name=EdgeDist-15, location=ELEMENT, Table=EdgeDist-15_Table
,     1.
76 , 0.4283
196 , 0.4283
316 , 0.4283
436 , 0.4283
556 , 0.4283
676 , 0.4283
796 , 0.4283
916 , 0.4283
1036 , 0.4283
1156 , 0.4283
1276 , 0.4283
1396 , 0.4283
1516 , 0.4283
1636 , 0.4283
1756 , 0.4283
1876 , 0.4283
1996 , 0.4283
2116 , 0.4283
2236 , 0.4283
2356 , 0.4283
** ... 480 like lines cut
*Shell Section, elset=Edge-15, material=MAT, controls=EC-1, shell thickness=EdgeDist-15
1., 5
*Elset, elset=Edge-16
81, 201, 321, 441, 561, 681, 801, 921, 
1041, 1161, 1281, 1401, 1521, 1641, 1761, 
1881, 2001, 2121, 2241, 2361, 2481, 2601, 
2721, 2841, 2961, 3081, 3201, 3321, 3441, 
3561, 3681, 3801, 3921, 4041, 4161, 4281, 
4401, 4521, 4641, 4761, 4881, 5001, 5121, 
5241, 5361, 5481, 5601, 5721, 5841, 5961, 
6081, 6201, 6321, 6441, 6561, 6681, 6801, 
6921, 7041, 7161, 7281, 7401, 7521, 7641, 
7761, 7881, 8001, 8121, 8241, 8361, 8481, 
8601, 8721, 8841, 8961, 9081, 9201, 9321, 
9441, 9561, 9681, 9801, 9921, 10041, 10161, 
10281, 10401, 10521, 10641, 10761, 10881, 11001, 
11121, 11241, 11361, 11481, 11601, 11721, 11841, 
11961, 82, 202, 322, 442, 562, 682, 
802, 922, 1042, 1162, 1282, 1402, 1522, 
1642, 1762, 1882, 2002, 2122, 2242, 2362, 
2482, 2602, 2722, 2842, 2962, 3082, 3202, 
3322, 3442, 3562, 3682, 3802, 3922, 4042, 
4162, 4282, 4402, 4522, 4642, 4762, 4882, 
** ... 52 like lines cut
*Distribution, name=EdgeDist-16, location=ELEMENT, Table=EdgeDist-16_Table
,     1.
81 , 0.4283
201 , 0.4283
321 , 0.4283
441 , 0.4283
561 , 0.4283
681 , 0.4283
801 , 0.4283
921 , 0.4283
1041 , 0.4283
1161 , 0.4283
1281 , 0.4283
1401 , 0.4283
1521 , 0.4283
1641 , 0.4283
1761 , 0.4283
1881 , 0.4283
2001 , 0.4283
2121 , 0.4283
2241 , 0.4283
2361 , 0.4283
** ... 480 like lines cut
*Shell Section, elset=Edge-16, material=MAT, controls=EC-1, shell thickness=EdgeDist-16
1., 5
*Elset, elset=Edge-17
86, 206, 326, 446, 566, 686, 806, 926, 
1046, 1166, 1286, 1406, 1526, 1646, 1766, 
1886, 2006, 2126, 2246, 2366, 2486, 2606, 
2726, 2846, 2966, 3086, 3206, 3326, 3446, 
3566, 3686, 3806, 3926, 4046, 4166, 4286, 
4406, 4526, 4646, 4766, 4886, 5006, 5126, 
5246, 5366, 5486, 5606, 5726, 5846, 5966, 
6086, 6206, 6326, 6446, 6566, 6686, 6806, 
6926, 7046, 7166, 7286, 7406, 7526, 7646, 
7766, 7886, 8006, 8126, 8246, 8366, 8486, 
8606, 8726, 8846, 8966, 9086, 9206, 9326, 
9446, 9566, 9686, 9806, 9926, 10046, 10166, 
10286, 10406, 10526, 10646, 10766, 10886, 11006, 
11126, 11246, 11366, 11486, 11606, 11726, 11846, 
11966, 87, 207, 327, 447, 567, 687, 
807, 927, 1047, 1167, 1287, 1407, 1527, 
1647, 1767, 1887, 2007, 2127, 2247, 2367, 
2487, 2607, 2727, 2847, 2967, 3087, 3207, 
3327, 3447, 3567, 3687, 3807, 3927, 4047, 
4167, 4287, 4407, 4527, 4647, 4767, 4887, 
** ... 52 like lines cut
*Distribution, name=EdgeDist-17, location=ELEMENT, Table=EdgeDist-17_Table
,     1.
86 , 0.4283
206 , 0.4283
326 , 0.4283
446 , 0.4283
566 , 0.4283
686 , 0.4283
806 , 0.4283
926 , 0.4283
1046 , 0.4283
1166 , 0.4283
1286 , 0.4283
1406 , 0.4283
1526 , 0.4283
1646 , 0.4283
1766 , 0.4283
1886 , 0.4283
2006 , 0.4283
2126 , 0.4283
2246 , 0.4283
2366 , 0.4283
** ... 480 like lines cut
*Shell Section, elset=Edge-17, material=MAT, controls=EC-1, shell thickness=EdgeDist-17
1., 5
*Elset, elset=Edge-18
91, 211, 331, 451, 571, 691, 811, 931, 
1051, 1171, 1291, 1411, 1531, 1651, 1771, 
1891, 2011, 2131, 2251, 2371, 2491, 2611, 
2731, 2851, 2971, 3091, 3211, 3331, 3451, 
3571, 3691, 3811, 3931, 4051, 4171, 4291, 
4411, 4531, 4651, 4771, 4891, 5011, 5131, 
5251, 5371, 5491, 5611, 5731, 5851, 5971, 
6091, 6211, 6331, 6451, 6571, 6691, 6811, 
6931, 7051, 7171, 7291, 7411, 7531, 7651, 
7771, 7891, 8011, 8131, 8251, 8371, 8491, 
8611, 8731, 8851, 8971, 9091, 9211, 9331, 
9451, 9571, 9691, 9811, 9931, 10051, 10171, 
10291, 10411, 10531, 10651, 10771, 10891, 11011, 
11131, 11251, 11371, 11491, 11611, 11731, 11851, 
11971, 92, 212, 332, 452, 572, 692, 
812, 932, 1052, 1172, 1292, 1412, 1532, 
1652, 1772, 1892, 2012, 2132, 2252, 2372, 
2492, 2612, 2732, 2852, 2972, 3092, 3212, 
3332, 3452, 3572, 3692, 3812, 3932, 4052, 
4172, 4292, 4412, 4532, 4652, 4772, 4892, 
** ... 52 like lines cut
*Distribution, name=EdgeDist-18, location=ELEMENT, Table=EdgeDist-18_Table
,     1.
91 , 0.4283
211 , 0.4283
331 , 0.4283
451 , 0.4283
571 , 0.4283
691 , 0.4283
811 , 0.4283
931 , 0.4283
1051 , 0.4283
1171 , 0.4283
1291 , 0.4283
1411 , 0.4283
1531 , 0.4283
1651 , 0.4283
1771 , 0.4283
1891 , 0.4283
2011 , 0.4283
2131 , 0.4283
2251 , 0.4283
2371 , 0.4283
** ... 480 like lines cut
*Shell Section, elset=Edge-18, material=MAT, controls=EC-1, shell thickness=EdgeDist-18
1., 5
*Elset, elset=Edge-19
96, 216, 336, 456, 576, 696, 816, 936, 
1056, 1176, 1296, 1416, 1536, 1656, 1776, 
1896, 2016, 2136, 2256, 2376, 2496, 2616, 
2736, 2856, 2976, 3096, 3216, 3336, 3456, 
3576, 3696, 3816, 3936, 4056, 4176, 4296, 
4416, 4536, 4656, 4776, 4896, 5016, 5136, 
5256, 5376, 5496, 5616, 5736, 5856, 5976, 
6096, 6216, 6336, 6456, 6576, 6696, 6816, 
6936, 7056, 7176, 7296, 7416, 7536, 7656, 
7776, 7896, 8016, 8136, 8256, 8376, 8496, 
8616, 8736, 8856, 8976, 9096, 9216, 9336, 
9456, 9576, 9696, 9816, 9936, 10056, 10176, 
10296, 10416, 10536, 10656, 10776, 10896, 11016, 
11136, 11256, 11376, 11496, 11616, 11736, 11856, 
11976, 97, 217, 337, 457, 577, 697, 
817, 937, 1057, 1177, 1297, 1417, 1537, 
1657, 1777, 1897, 2017, 2137, 2257, 2377, 
2497, 2617, 2737, 2857, 2977, 3097, 3217, 
3337, 3457, 3577, 3697, 3817, 3937, 4057, 
4177, 4297, 4417, 4537, 4657, 4777, 4897, 
** ... 52 like lines cut
*Distribution, name=EdgeDist-19, location=ELEMENT, Table=EdgeDist-19_Table
,     1.
96 , 0.4283
216 , 0.4283
336 , 0.4283
456 , 0.4283
576 , 0.4283
696 , 0.4283
816 , 0.4283
936 , 0.4283
1056 , 0.4283
1176 , 0.4283
1296 , 0.4283
1416 , 0.4283
1536 , 0.4283
1656 , 0.4283
1776 , 0.4283
1896 , 0.4283
2016 , 0.4283
2136 , 0.4283
2256 , 0.4283
2376 , 0.4283
** ... 480 like lines cut
*Shell Section, elset=Edge-19, material=MAT, controls=EC-1, shell thickness=EdgeDist-19
1., 5
*Elset, elset=Edge-20
101, 221, 341, 461, 581, 701, 821, 941, 
1061, 1181, 1301, 1421, 1541, 1661, 1781, 
1901, 2021, 2141, 2261, 2381, 2501, 2621, 
2741, 2861, 2981, 3101, 3221, 3341, 3461, 
3581, 3701, 3821, 3941, 4061, 4181, 4301, 
4421, 4541, 4661, 4781, 4901, 5021, 5141, 
5261, 5381, 5501, 5621, 5741, 5861, 5981, 
6101, 6221, 6341, 6461, 6581, 6701, 6821, 
6941, 7061, 7181, 7301, 7421, 7541, 7661, 
7781, 7901, 8021, 8141, 8261, 8381, 8501, 
8621, 8741, 8861, 8981, 9101, 9221, 9341, 
9461, 9581, 9701, 9821, 9941, 10061, 10181, 
10301, 10421, 10541, 10661, 10781, 10901, 11021, 
11141, 11261, 11381, 11501, 11621, 11741, 11861, 
11981, 102, 222, 342, 462, 582, 702, 
822, 942, 1062, 1182, 1302, 1422, 1542, 
1662, 1782, 1902, 2022, 2142, 2262, 2382, 
2502, 2622, 2742, 2862, 2982, 3102, 3222, 
3342, 3462, 3582, 3702, 3822, 3942, 4062, 
4182, 4302, 4422, 4542, 4662, 4782, 4902, 
** ... 52 like lines cut
*Distribution, name=EdgeDist-20, location=ELEMENT, Table=EdgeDist-20_Table
,     1.
101 , 1.5
221 , 1.5
341 , 1.5
461 , 1.5
581 , 1.5
701 , 1.5
821 , 1.5
941 , 1.5
1061 , 1.5
1181 , 1.5
1301 , 1.5
1421 , 1.5
1541 , 1.5
1661 , 1.5
1781 , 1.5
1901 , 1.5
2021 , 1.5
2141 , 1.5
2261 , 1.5
2381 , 1.5
** ... 480 like lines cut
*Shell Section, elset=Edge-20, material=MAT, controls=EC-1, shell thickness=EdgeDist-20
1., 5
*Elset, elset=Edge-21
106, 226, 346, 466, 586, 706, 826, 946, 
1066, 1186, 1306, 1426, 1546, 1666, 1786, 
1906, 2026, 2146, 2266, 2386, 2506, 2626, 
2746, 2866, 2986, 3106, 3226, 3346, 3466, 
3586, 3706, 3826, 3946, 4066, 4186, 4306, 
4426, 4546, 4666, 4786, 4906, 5026, 5146, 
5266, 5386, 5506, 5626, 5746, 5866, 5986, 
6106, 6226, 6346, 6466, 6586, 6706, 6826, 
6946, 7066, 7186, 7306, 7426, 7546, 7666, 
7786, 7906, 8026, 8146, 8266, 8386, 8506, 
8626, 8746, 8866, 8986, 9106, 9226, 9346, 
9466, 9586, 9706, 9826, 9946, 10066, 10186, 
10306, 10426, 10546, 10666, 10786, 10906, 11026, 
11146, 11266, 11386, 11506, 11626, 11746, 11866, 
11986, 107, 227, 347, 467, 587, 707, 
827, 947, 1067, 1187, 1307, 1427, 1547, 
1667, 1787, 1907, 2027, 2147, 2267, 2387, 
2507, 2627, 2747, 2867, 2987, 3107, 3227, 
3347, 3467, 3587, 3707, 3827, 3947, 4067, 
4187, 4307, 4427, 4547, 4667, 4787, 4907, 
** ... 52 like lines cut
*Distribution, name=EdgeDist-21, location=ELEMENT, Table=EdgeDist-21_Table
,     1.
106 , 1.5
226 , 1.5
346 , 1.5
466 , 1.5
586 , 1.5
706 , 1.5
826 , 1.5
946 , 1.5
1066 , 1.5
1186 , 1.5
1306 , 1.5
1426 , 1.5
1546 , 1.5
1666 , 1.5
1786 , 1.5
1906 , 1.5
2026 , 1.5
2146 , 1.5
2266 , 1.5
2386 , 1.5
** ... 480 like lines cut
*Shell Section, elset=Edge-21, material=MAT, controls=EC-1, shell thickness=EdgeDist-21
1., 5
*Elset, elset=Edge-22
111, 231, 351, 471, 591, 711, 831, 951, 
1071, 1191, 1311, 1431, 1551, 1671, 1791, 
1911, 2031, 2151, 2271, 2391, 2511, 2631, 
2751, 2871, 2991, 3111, 3231, 3351, 3471, 
3591, 3711, 3831, 3951, 4071, 4191, 4311, 
4431, 4551, 4671, 4791, 4911, 5031, 5151, 
5271, 5391, 5511, 5631, 5751, 5871, 5991, 
6111, 6231, 6351, 6471, 6591, 6711, 6831, 
6951, 7071, 7191, 7311, 7431, 7551, 7671, 
7791, 7911, 8031, 8151, 8271, 8391, 8511, 
8631, 8751, 8871, 8991, 9111, 9231, 9351, 
9471, 9591, 9711, 9831, 9951, 10071, 10191, 
10311, 10431, 10551, 10671, 10791, 10911, 11031, 
11151, 11271, 11391, 11511, 11631, 11751, 11871, 
11991, 112, 232, 352, 472, 592, 712, 
832, 952, 1072, 1192, 1312, 1432, 1552, 
1672, 1792, 1912, 2032, 2152, 2272, 2392, 
2512, 2632, 2752, 2872, 2992, 3112, 3232, 
3352, 3472, 3592, 3712, 3832, 3952, 4072, 
4192, 4312, 4432, 4552, 4672, 4792, 4912, 
** ... 52 like lines cut
*Distribution, name=EdgeDist-22, location=ELEMENT, Table=EdgeDist-22_Table
,     1.
111 , 1.5
231 , 1.5
351 , 1.5
471 , 1.5
591 , 1.5
711 , 1.5
831 , 1.5
951 , 1.5
1071 , 1.5
1191 , 1.5
1311 , 1.5
1431 , 1.5
1551 , 1.5
1671 , 1.5
1791 , 1.5
1911 , 1.5
2031 , 1.5
2151 , 1.5
2271 , 1.5
2391 , 1.5
** ... 480 like lines cut
*Shell Section, elset=Edge-22, material=MAT, controls=EC-1, shell thickness=EdgeDist-22
1., 5
*Elset, elset=Edge-23
116, 236, 356, 476, 596, 716, 836, 956, 
1076, 1196, 1316, 1436, 1556, 1676, 1796, 
1916, 2036, 2156, 2276, 2396, 2516, 2636, 
2756, 2876, 2996, 3116, 3236, 3356, 3476, 
3596, 3716, 3836, 3956, 4076, 4196, 4316, 
4436, 4556, 4676, 4796, 4916, 5036, 5156, 
5276, 5396, 5516, 5636, 5756, 5876, 5996, 
6116, 6236, 6356, 6476, 6596, 6716, 6836, 
6956, 7076, 7196, 7316, 7436, 7556, 7676, 
7796, 7916, 8036, 8156, 8276, 8396, 8516, 
8636, 8756, 8876, 8996, 9116, 9236, 9356, 
9476, 9596, 9716, 9836, 9956, 10076, 10196, 
10316, 10436, 10556, 10676, 10796, 10916, 11036, 
11156, 11276, 11396, 11516, 11636, 11756, 11876, 
11996, 117, 237, 357, 477, 597, 717, 
837, 957, 1077, 1197, 1317, 1437, 1557, 
1677, 1797, 1917, 2037, 2157, 2277, 2397, 
2517, 2637, 2757, 2877, 2997, 3117, 3237, 
3357, 3477, 3597, 3717, 3837, 3957, 4077, 
4197, 4317, 4437, 4557, 4677, 4797, 4917, 
** ... 52 like lines cut
*Distribution, name=EdgeDist-23, location=ELEMENT, Table=EdgeDist-23_Table
,     1.
116 , 1.5
236 , 1.5
356 , 1.5
476 , 1.5
596 , 1.5
716 , 1.5
836 , 1.5
956 , 1.5
1076 , 1.5
1196 , 1.5
1316 , 1.5
1436 , 1.5
1556 , 1.5
1676 , 1.5
1796 , 1.5
1916 , 1.5
2036 , 1.5
2156 , 1.5
2276 , 1.5
2396 , 1.5
** ... 480 like lines cut
*Shell Section, elset=Edge-23, material=MAT, controls=EC-1, shell thickness=EdgeDist-23
1., 5
*Elset, elset=Edge-24
12001, 12126, 12251, 12376, 12501, 12626, 12751, 12876, 
13001, 13126, 13251, 13376, 13501, 13626, 13751, 
13876, 14001, 14126, 14251, 14376, 14501, 14626, 
14751, 14876, 15001, 15126, 15251, 15376, 15501, 
15626, 15751, 15876, 16001, 16126, 16251, 16376, 
16501, 16626, 16751, 16876, 17001, 17126, 17251, 
17376, 17501, 17626, 17751, 17876, 18001, 18126, 
18251, 18376, 18501, 18626, 18751, 18876, 19001, 
19126, 19251, 19376, 19501, 19626, 19751, 19876, 
20001, 20126, 20251, 20376, 20501, 20626, 20751, 
20876, 21001, 21126, 21251, 21376, 21501, 21626, 
21751, 21876, 22001, 22126, 22251, 22376, 22501, 
22626, 22751, 22876, 23001, 23126, 23251, 23376, 
23501, 23626, 23751, 23876, 24001, 24126, 24251, 
24376, 12006, 12131, 12256, 12381, 12506, 12631, 
12756, 12881, 13006, 13131, 13256, 13381, 13506, 
13631, 13756, 13881, 14006, 14131, 14256, 14381, 
14506, 14631, 14756, 14881, 15006, 15131, 15256, 
15381, 15506, 15631, 15756, 15881, 16006, 16131, 
16256, 16381, 16506, 16631, 16756, 16881, 17006, 
** ... 52 like lines cut
*Distribution, name=EdgeDist-24, location=ELEMENT, Table=EdgeDist-24_Table
,     1.
12001 , 1.5
12126 , 1.5
12251 , 1.5
12376 , 1.5
12501 , 1.5
12626 , 1.5
12751 , 1.5
12876 , 1.5
13001 , 1.5
13126 , 1.5
13251 , 1.5
13376 , 1.5
13501 , 1.5
13626 , 1.5
13751 , 1.5
13876 , 1.5
14001 , 1.5
14126 , 1.5
14251 , 1.5
14376 , 1.5
** ... 480 like lines cut
*Shell Section, elset=Edge-24, material=MAT, controls=EC-1, shell thickness=EdgeDist-24
1., 5
*Elset, elset=Edge-25
12002, 12127, 12252, 12377, 12502, 12627, 12752, 12877, 
13002, 13127, 13252, 13377, 13502, 13627, 13752, 
13877, 14002, 14127, 14252, 14377, 14502, 14627, 
14752, 14877, 15002, 15127, 15252, 15377, 15502, 
15627, 15752, 15877, 16002, 16127, 16252, 16377, 
16502, 16627, 16752, 16877, 17002, 17127, 17252, 
17377, 17502, 17627, 17752, 17877, 18002, 18127, 
18252, 18377, 18502, 18627, 18752, 18877, 19002, 
19127, 19252, 19377, 19502, 19627, 19752, 19877, 
20002, 20127, 20252, 20377, 20502, 20627, 20752, 
20877, 21002, 21127, 21252, 21377, 21502, 21627, 
21752, 21877, 22002, 22127, 22252, 22377, 22502, 
22627, 22752, 22877, 23002, 23127, 23252, 23377, 
23502, 23627, 23752, 23877, 24002, 24127, 24252, 
24377, 12007, 12132, 12257, 12382, 12507, 12632, 
12757, 12882, 13007, 13132, 13257, 13382, 13507, 
13632, 13757, 13882, 14007, 14132, 14257, 14382, 
14507, 14632, 14757, 14882, 15007, 15132, 15257, 
15382, 15507, 15632, 15757, 15882, 16007, 16132, 
16257, 16382, 16507, 16632, 16757, 16882, 17007, 
** ... 52 like lines cut
*Distribution, name=EdgeDist-25, location=ELEMENT, Table=EdgeDist-25_Table
,     1.
12002 , 0.4283
12127 , 0.4283
12252 , 0.4283
12377 , 0.4283
12502 , 0.4283
12627 , 0.4283
12752 , 0.4283
12877 , 0.4283
13002 , 0.4283
13127 , 0.4283
13252 , 0.4283
13377 , 0.4283
13502 , 0.4283
13627 , 0.4283
13752 , 0.4283
13877 , 0.4283
14002 , 0.4283
14127 , 0.4283
14252 , 0.4283
14377 , 0.4283
** ... 480 like lines cut
*Shell Section, elset=Edge-25, material=MAT, controls=EC-1, shell thickness=EdgeDist-25
1., 5
*Elset, elset=Edge-26
12003, 12128, 12253, 12378, 12503, 12628, 12753, 12878, 
13003, 13128, 13253, 13378, 13503, 13628, 13753, 
13878, 14003, 14128, 14253, 14378, 14503, 14628, 
14753, 14878, 15003, 15128, 15253, 15378, 15503, 
15628, 15753, 15878, 16003, 16128, 16253, 16378, 
16503, 16628, 16753, 16878, 17003, 17128, 17253, 
17378, 17503, 17628, 17753, 17878, 18003, 18128, 
18253, 18378, 18503, 18628, 18753, 18878, 19003, 
19128, 19253, 19378, 19503, 19628, 19753, 19878, 
20003, 20128, 20253, 20378, 20503, 20628, 20753, 
20878, 21003, 21128, 21253, 21378, 21503, 21628, 
21753, 21878, 22003, 22128, 22253, 22378, 22503, 
22628, 22753, 22878, 23003, 23128, 23253, 23378, 
23503, 23628, 23753, 23878, 24003, 24128, 24253, 
24378, 12008, 12133, 12258, 12383, 12508, 12633, 
12758, 12883, 13008, 13133, 13258, 13383, 13508, 
13633, 13758, 13883, 14008, 14133, 14258, 14383, 
14508, 14633, 14758, 14883, 15008, 15133, 15258, 
15383, 15508, 15633, 15758, 15883, 16008, 16133, 
16258, 16383, 16508, 16633, 16758, 16883, 17008, 
** ... 52 like lines cut
*Distribution, name=EdgeDist-26, location=ELEMENT, Table=EdgeDist-26_Table
,     1.
12003 , 0.4283
12128 , 0.4283
12253 , 0.4283
12378 , 0.4283
12503 , 0.4283
12628 , 0.4283
12753 , 0.4283
12878 , 0.4283
13003 , 0.4283
13128 , 0.4283
13253 , 0.4283
13378 , 0.4283
13503 , 0.4283
13628 , 0.4283
13753 , 0.4283
13878 , 0.4283
14003 , 0.4283
14128 , 0.4283
14253 , 0.4283
14378 , 0.4283
** ... 480 like lines cut
*Shell Section, elset=Edge-26, material=MAT, controls=EC-1, shell thickness=EdgeDist-26
1., 5
*Elset, elset=Edge-27
12004, 12129, 12254, 12379, 12504, 12629, 12754, 12879, 
13004, 13129, 13254, 13379, 13504, 13629, 13754, 
13879, 14004, 14129, 14254, 14379, 14504, 14629, 
14754, 14879, 15004, 15129, 15254, 15379, 15504, 
15629, 15754, 15879, 16004, 16129, 16254, 16379, 
16504, 16629, 16754, 16879, 17004, 17129, 17254, 
17379, 17504, 17629, 17754, 17879, 18004, 18129, 
18254, 18379, 18504, 18629, 18754, 18879, 19004, 
19129, 19254, 19379, 19504, 19629, 19754, 19879, 
20004, 20129, 20254, 20379, 20504, 20629, 20754, 
20879, 21004, 21129, 21254, 21379, 21504, 21629, 
21754, 21879, 22004, 22129, 22254, 22379, 22504, 
22629, 22754, 22879, 23004, 23129, 23254, 23379, 
23504, 23629, 23754, 23879, 24004, 24129, 24254, 
24379, 12009, 12134, 12259, 12384, 12509, 12634, 
12759, 12884, 13009, 13134, 13259, 13384, 13509, 
13634, 13759, 13884, 14009, 14134, 14259, 14384, 
14509, 14634, 14759, 14884, 15009, 15134, 15259, 
15384, 15509, 15634, 15759, 15884, 16009, 16134, 
16259, 16384, 16509, 16634, 16759, 16884, 17009, 
** ... 52 like lines cut
*Distribution, name=EdgeDist-27, location=ELEMENT, Table=EdgeDist-27_Table
,     1.
12004 , 0.4283
12129 , 0.4283
12254 , 0.4283
12379 , 0.4283
12504 , 0.4283
12629 , 0.4283
12754 , 0.4283
12879 , 0.4283
13004 , 0.4283
13129 , 0.4283
13254 , 0.4283
13379 , 0.4283
13504 , 0.4283
13629 , 0.4283
13754 , 0.4283
13879 , 0.4283
14004 , 0.4283
14129 , 0.4283
14254 , 0.4283
14379 , 0.4283
** ... 480 like lines cut
*Shell Section, elset=Edge-27, material=MAT, controls=EC-1, shell thickness=EdgeDist-27
1., 5
*Elset, elset=Edge-28
12005, 12130, 12255, 12380, 12505, 12630, 12755, 12880, 
13005, 13130, 13255, 13380, 13505, 13630, 13755, 
13880, 14005, 14130, 14255, 14380, 14505, 14630, 
14755, 14880, 15005, 15130, 15255, 15380, 15505, 
15630, 15755, 15880, 16005, 16130, 16255, 16380, 
16505, 16630, 16755, 16880, 17005, 17130, 17255, 
17380, 17505, 17630, 17755, 17880, 18005, 18130, 
18255, 18380, 18505, 18630, 18755, 18880, 19005, 
19130, 19255, 19380, 19505, 19630, 19755, 19880, 
20005, 20130, 20255, 20380, 20505, 20630, 20755, 
20880, 21005, 21130, 21255, 21380, 21505, 21630, 
21755, 21880, 22005, 22130, 22255, 22380, 22505, 
22630, 22755, 22880, 23005, 23130, 23255, 23380, 
23505, 23630, 23755, 23880, 24005, 24130, 24255, 
24380, 12010, 12135, 12260, 12385, 12510, 12635, 
12760, 12885, 13010, 13135, 13260, 13385, 13510, 
13635, 13760, 13885, 14010, 14135, 14260, 14385, 
14510, 14635, 14760, 14885, 15010, 15135, 15260, 
15385, 15510, 15635, 15760, 15885, 16010, 16135, 
16260, 16385, 16510, 16635, 16760, 16885, 17010, 
** ... 52 like lines cut
*Distribution, name=EdgeDist-28, location=ELEMENT, Table=EdgeDist-28_Table
,     1.
12005 , 1.5
12130 , 1.5
12255 , 1.5
12380 , 1.5
12505 , 1.5
12630 , 1.5
12755 , 1.5
12880 , 1.5
13005 , 1.5
13130 , 1.5
13255 , 1.5
13380 , 1.5
13505 , 1.5
13630 , 1.5
13755 , 1.5
13880 , 1.5
14005 , 1.5
14130 , 1.5
14255 , 1.5
14380 , 1.5
** ... 480 like lines cut
*Shell Section, elset=Edge-28, material=MAT, controls=EC-1, shell thickness=EdgeDist-28
1., 5
*Elset, elset=Edge-29
12026, 12151, 12276, 12401, 12526, 12651, 12776, 12901, 
13026, 13151, 13276, 13401, 13526, 13651, 13776, 
13901, 14026, 14151, 14276, 14401, 14526, 14651, 
14776, 14901, 15026, 15151, 15276, 15401, 15526, 
15651, 15776, 15901, 16026, 16151, 16276, 16401, 
16526, 16651, 16776, 16901, 17026, 17151, 17276, 
17401, 17526, 17651, 17776, 17901, 18026, 18151, 
18276, 18401, 18526, 18651, 18776, 18901, 19026, 
19151, 19276, 19401, 19526, 19651, 19776, 19901, 
20026, 20151, 20276, 20401, 20526, 20651, 20776, 
20901, 21026, 21151, 21276, 21401, 21526, 21651, 
21776, 21901, 22026, 22151, 22276, 22401, 22526, 
22651, 22776, 22901, 23026, 23151, 23276, 23401, 
23526, 23651, 23776, 23901, 24026, 24151, 24276, 
24401, 12031, 12156, 12281, 12406, 12531, 12656, 
12781, 12906, 13031, 13156, 13281, 13406, 13531, 
13656, 13781, 13906, 14031, 14156, 14281, 14406, 
14531, 14656, 14781, 14906, 15031, 15156, 15281, 
15406, 15531, 15656, 15781, 15906, 16031, 16156, 
16281, 16406, 16531, 16656, 16781, 16906, 17031, 
** ... 52 like lines cut
*Distribution, name=EdgeDist-29, location=ELEMENT, Table=EdgeDist-29_Table
,     1.
12026 , 1.5
12151 , 1.5
12276 , 1.5
12401 , 1.5
12526 , 1.5
12651 , 1.5
12776 , 1.5
12901 , 1.5
13026 , 1.5
13151 , 1.5
13276 , 1.5
13401 , 1.5
13526 , 1.5
13651 , 1.5
13776 , 1.5
13901 , 1.5
14026 , 1.5
14151 , 1.5
14276 , 1.5
14401 , 1.5
** ... 480 like lines cut
*Shell Section, elset=Edge-29, material=MAT, controls=EC-1, shell thickness=EdgeDist-29
1., 5
*Elset, elset=Edge-30
12027, 12152, 12277, 12402, 12527, 12652, 12777, 12902, 
13027, 13152, 13277, 13402, 13527, 13652, 13777, 
13902, 14027, 14152, 14277, 14402, 14527, 14652, 
14777, 14902, 15027, 15152, 15277, 15402, 15527, 
15652, 15777, 15902, 16027, 16152, 16277, 16402, 
16527, 16652, 16777, 16902, 17027, 17152, 17277, 
17402, 17527, 17652, 17777, 17902, 18027, 18152, 
18277, 18402, 18527, 18652, 18777, 18902, 19027, 
19152, 19277, 19402, 19527, 19652, 19777, 19902, 
20027, 20152, 20277, 20402, 20527, 20652, 20777, 
20902, 21027, 21152, 21277, 21402, 21527, 21652, 
21777, 21902, 22027, 22152, 22277, 22402, 22527, 
22652, 22777, 22902, 23027, 23152, 23277, 23402, 
23527, 23652, 23777, 23902, 24027, 24152, 24277, 
24402, 12032, 12157, 12282, 12407, 12532, 12657, 
12782, 12907, 13032, 13157, 13282, 13407, 13532, 
13657, 13782, 13907, 14032, 14157, 14282, 14407, 
14532, 14657, 14782, 14907, 15032, 15157, 15282, 
15407, 15532, 15657, 15782, 15907, 16032, 16157, 
16282, 16407, 16532, 16657, 16782, 16907, 17032, 
** ... 52 like lines cut
*Distribution, name=EdgeDist-30, location=ELEMENT, Table=EdgeDist-30_Table
,     1.
12027 , 0.4283
12152 , 0.4283
12277 , 0.4283
12402 , 0.4283
12527 , 0.4283
12652 , 0.4283
12777 , 0.4283
12902 , 0.4283
13027 , 0.4283
13152 , 0.4283
13277 , 0.4283
13402 , 0.4283
13527 , 0.4283
13652 , 0.4283
13777 , 0.4283
13902 , 0.4283
14027 , 0.4283
14152 , 0.4283
14277 , 0.4283
14402 , 0.4283
** ... 480 like lines cut
*Shell Section, elset=Edge-30, material=MAT, controls=EC-1, shell thickness=EdgeDist-30
1., 5
*Elset, elset=Edge-31
12028, 12153, 12278, 12403, 12528, 12653, 12778, 12903, 
13028, 13153, 13278, 13403, 13528, 13653, 13778, 
13903, 14028, 14153, 14278, 14403, 14528, 14653, 
14778, 14903, 15028, 15153, 15278, 15403, 15528, 
15653, 15778, 15903, 16028, 16153, 16278, 16403, 
16528, 16653, 16778, 16903, 17028, 17153, 17278, 
17403, 17528, 17653, 17778, 17903, 18028, 18153, 
18278, 18403, 18528, 18653, 18778, 18903, 19028, 
19153, 19278, 19403, 19528, 19653, 19778, 19903, 
20028, 20153, 20278, 20403, 20528, 20653, 20778, 
20903, 21028, 21153, 21278, 21403, 21528, 21653, 
21778, 21903, 22028, 22153, 22278, 22403, 22528, 
22653, 22778, 22903, 23028, 23153, 23278, 23403, 
23528, 23653, 23778, 23903, 24028, 24153, 24278, 
24403, 12033, 12158, 12283, 12408, 12533, 12658, 
12783, 12908, 13033, 13158, 13283, 13408, 13533, 
13658, 13783, 13908, 14033, 14158, 14283, 14408, 
14533, 14658, 14783, 14908, 15033, 15158, 15283, 
15408, 15533, 15658, 15783, 15908, 16033, 16158, 
16283, 16408, 16533, 16658, 16783, 16908, 17033, 
** ... 52 like lines cut
*Distribution, name=EdgeDist-31, location=ELEMENT, Table=EdgeDist-31_Table
,     1.
12028 , 0.4283
12153 , 0.4283
12278 , 0.4283
12403 , 0.4283
12528 , 0.4283
12653 , 0.4283
12778 , 0.4283
12903 , 0.4283
13028 , 0.4283
13153 , 0.4283
13278 , 0.4283
13403 , 0.4283
13528 , 0.4283
13653 , 0.4283
13778 , 0.4283
13903 , 0.4283
14028 , 0.4283
14153 , 0.4283
14278 , 0.4283
14403 , 0.4283
** ... 480 like lines cut
*Shell Section, elset=Edge-31, material=MAT, controls=EC-1, shell thickness=EdgeDist-31
1., 5
*Elset, elset=Edge-32
12029, 12154, 12279, 12404, 12529, 12654, 12779, 12904, 
13029, 13154, 13279, 13404, 13529, 13654, 13779, 
13904, 14029, 14154, 14279, 14404, 14529, 14654, 
14779, 14904, 15029, 15154, 15279, 15404, 15529, 
15654, 15779, 15904, 16029, 16154, 16279, 16404, 
16529, 16654, 16779, 16904, 17029, 17154, 17279, 
17404, 17529, 17654, 17779, 17904, 18029, 18154, 
18279, 18404, 18529, 18654, 18779, 18904, 19029, 
19154, 19279, 19404, 19529, 19654, 19779, 19904, 
20029, 20154, 20279, 20404, 20529, 20654, 20779, 
20904, 21029, 21154, 21279, 21404, 21529, 21654, 
21779, 21904, 22029, 22154, 22279, 22404, 22529, 
22654, 22779, 22904, 23029, 23154, 23279, 23404, 
23529, 23654, 23779, 23904, 24029, 24154, 24279, 
24404, 12034, 12159, 12284, 12409, 12534, 12659, 
12784, 12909, 13034, 13159, 13284, 13409, 13534, 
13659, 13784, 13909, 14034, 14159, 14284, 14409, 
14534, 14659, 14784, 14909, 15034, 15159, 15284, 
15409, 15534, 15659, 15784, 15909, 16034, 16159, 
16284, 16409, 16534, 16659, 16784, 16909, 17034, 
** ... 52 like lines cut
*Distribution, name=EdgeDist-32, location=ELEMENT, Table=EdgeDist-32_Table
,     1.
12029 , 0.4283
12154 , 0.4283
12279 , 0.4283
12404 , 0.4283
12529 , 0.4283
12654 , 0.4283
12779 , 0.4283
12904 , 0.4283
13029 , 0.4283
13154 , 0.4283
13279 , 0.4283
13404 , 0.4283
13529 , 0.4283
13654 , 0.4283
13779 , 0.4283
13904 , 0.4283
14029 , 0.4283
14154 , 0.4283
14279 , 0.4283
14404 , 0.4283
** ... 480 like lines cut
*Shell Section, elset=Edge-32, material=MAT, controls=EC-1, shell thickness=EdgeDist-32
1., 5
*Elset, elset=Edge-33
12030, 12155, 12280, 12405, 12530, 12655, 12780, 12905, 
13030, 13155, 13280, 13405, 13530, 13655, 13780, 
13905, 14030, 14155, 14280, 14405, 14530, 14655, 
14780, 14905, 15030, 15155, 15280, 15405, 15530, 
15655, 15780, 15905, 16030, 16155, 16280, 16405, 
16530, 16655, 16780, 16905, 17030, 17155, 17280, 
17405, 17530, 17655, 17780, 17905, 18030, 18155, 
18280, 18405, 18530, 18655, 18780, 18905, 19030, 
19155, 19280, 19405, 19530, 19655, 19780, 19905, 
20030, 20155, 20280, 20405, 20530, 20655, 20780, 
20905, 21030, 21155, 21280, 21405, 21530, 21655, 
21780, 21905, 22030, 22155, 22280, 22405, 22530, 
22655, 22780, 22905, 23030, 23155, 23280, 23405, 
23530, 23655, 23780, 23905, 24030, 24155, 24280, 
24405, 12035, 12160, 12285, 12410, 12535, 12660, 
12785, 12910, 13035, 13160, 13285, 13410, 13535, 
13660, 13785, 13910, 14035, 14160, 14285, 14410, 
14535, 14660, 14785, 14910, 15035, 15160, 15285, 
15410, 15535, 15660, 15785, 15910, 16035, 16160, 
16285, 16410, 16535, 16660, 16785, 16910, 17035, 
** ... 52 like lines cut
*Distribution, name=EdgeDist-33, location=ELEMENT, Table=EdgeDist-33_Table
,     1.
12030 , 1.5
12155 , 1.5
12280 , 1.5
12405 , 1.5
12530 , 1.5
12655 , 1.5
12780 , 1.5
12905 , 1.5
13030 , 1.5
13155 , 1.5
13280 , 1.5
13405 , 1.5
13530 , 1.5
13655 , 1.5
13780 , 1.5
13905 , 1.5
14030 , 1.5
14155 , 1.5
14280 , 1.5
14405 , 1.5
** ... 480 like lines cut
*Shell Section, elset=Edge-33, material=MAT, controls=EC-1, shell thickness=EdgeDist-33
1., 5
*Elset, elset=Edge-34
12051, 12176, 12301, 12426, 12551, 12676, 12801, 12926, 
13051, 13176, 13301, 13426, 13551, 13676, 13801, 
13926, 14051, 14176, 14301, 14426, 14551, 14676, 
14801, 14926, 15051, 15176, 15301, 15426, 15551, 
15676, 15801, 15926, 16051, 16176, 16301, 16426, 
16551, 16676, 16801, 16926, 17051, 17176, 17301, 
17426, 17551, 17676, 17801, 17926, 18051, 18176, 
18301, 18426, 18551, 18676, 18801, 18926, 19051, 
19176, 19301, 19426, 19551, 19676, 19801, 19926, 
20051, 20176, 20301, 20426, 20551, 20676, 20801, 
20926, 21051, 21176, 21301, 21426, 21551, 21676, 
21801, 21926, 22051, 22176, 22301, 22426, 22551, 
22676, 22801, 22926, 23051, 23176, 23301, 23426, 
23551, 23676, 23801, 23926, 24051, 24176, 24301, 
24426, 12056, 12181, 12306, 12431, 12556, 12681, 
12806, 12931, 13056, 13181, 13306, 13431, 13556, 
13681, 13806, 13931, 14056, 14181, 14306, 14431, 
14556, 14681, 14806, 14931, 15056, 15181, 15306, 
15431, 15556, 15681, 15806, 15931, 16056, 16181, 
16306, 16431, 16556, 16681, 16806, 16931, 17056, 
** ... 52 like lines cut
*Distribution, name=EdgeDist-34, location=ELEMENT, Table=EdgeDist-34_Table
,     1.
12051 , 1.5
12176 , 1.5
12301 , 1.5
12426 , 1.5
12551 , 1.5
12676 , 1.5
12801 , 1.5
12926 , 1.5
13051 , 1.5
13176 , 1.5
13301 , 1.5
13426 , 1.5
13551 , 1.5
13676 , 1.5
13801 , 1.5
13926 , 1.5
14051 , 1.5
14176 , 1.5
14301 , 1.5
14426 , 1.5
** ... 480 like lines cut
*Shell Section, elset=Edge-34, material=MAT, controls=EC-1, shell thickness=EdgeDist-34
1., 5
*Elset, elset=Edge-35
12052, 12177, 12302, 12427, 12552, 12677, 12802, 12927, 
13052, 13177, 13302, 13427, 13552, 13677, 13802, 
13927, 14052, 14177, 14302, 14427, 14552, 14677, 
14802, 14927, 15052, 15177, 15302, 15427, 15552, 
15677, 15802, 15927, 16052, 16177, 16302, 16427, 
16552, 16677, 16802, 16927, 17052, 17177, 17302, 
17427, 17552, 17677, 17802, 17927, 18052, 18177, 
18302, 18427, 18552, 18677, 18802, 18927, 19052, 
19177, 19302, 19427, 19552, 19677, 19802, 19927, 
20052, 20177, 20302, 20427, 20552, 20677, 20802, 
20927, 21052, 21177, 21302, 21427, 21552, 21677, 
21802, 21927, 22052, 22177, 22302, 22427, 22552, 
22677, 22802, 22927, 23052, 23177, 23302, 23427, 
23552, 23677, 23802, 23927, 24052, 24177, 24302, 
24427, 12057, 12182, 12307, 12432, 12557, 12682, 
12807, 12932, 13057, 13182, 13307, 13432, 13557, 
13682, 13807, 13932, 14057, 14182, 14307, 14432, 
14557, 14682, 14807, 14932, 15057, 15182, 15307, 
15432, 15557, 15682, 15807, 15932, 16057, 16182, 
16307, 16432, 16557, 16682, 16807, 16932, 17057, 
** ... 52 like lines cut
*Distribution, name=EdgeDist-35, location=ELEMENT, Table=EdgeDist-35_Table
,     1.
12052 , 0.4283
12177 , 0.4283
12302 , 0.4283
12427 , 0.4283
12552 , 0.4283
12677 , 0.4283
12802 , 0.4283
12927 , 0.4283
13052 , 0.4283
13177 , 0.4283
13302 , 0.4283
13427 , 0.4283
13552 , 0.4283
13677 , 0.4283
13802 , 0.4283
13927 , 0.4283
14052 , 0.4283
14177 , 0.4283
14302 , 0.4283
14427 , 0.4283
** ... 480 like lines cut
*Shell Section, elset=Edge-35, material=MAT, controls=EC-1, shell thickness=EdgeDist-35
1., 5
*Elset, elset=Edge-36
12053, 12178, 12303, 12428, 12553, 12678, 12803, 12928, 
13053, 13178, 13303, 13428, 13553, 13678, 13803, 
13928, 14053, 14178, 14303, 14428, 14553, 14678, 
14803, 14928, 15053, 15178, 15303, 15428, 15553, 
15678, 15803, 15928, 16053, 16178, 16303, 16428, 
16553, 16678, 16803, 16928, 17053, 17178, 17303, 
17428, 17553, 17678, 17803, 17928, 18053, 18178, 
18303, 18428, 18553, 18678, 18803, 18928, 19053, 
19178, 19303, 19428, 19553, 19678, 19803, 19928, 
20053, 20178, 20303, 20428, 20553, 20678, 20803, 
20928, 21053, 21178, 21303, 21428, 21553, 21678, 
21803, 21928, 22053, 22178, 22303, 22428, 22553, 
22678, 22803, 22928, 23053, 23178, 23303, 23428, 
23553, 23678, 23803, 23928, 24053, 24178, 24303, 
24428, 12058, 12183, 12308, 12433, 12558, 12683, 
12808, 12933, 13058, 13183, 13308, 13433, 13558, 
13683, 13808, 13933, 14058, 14183, 14308, 14433, 
14558, 14683, 14808, 14933, 15058, 15183, 15308, 
15433, 15558, 15683, 15808, 15933, 16058, 16183, 
16308, 16433, 16558, 16683, 16808, 16933, 17058, 
** ... 52 like lines cut
*Distribution, name=EdgeDist-36, location=ELEMENT, Table=EdgeDist-36_Table
,     1.
12053 , 0.4283
12178 , 0.4283
12303 , 0.4283
12428 , 0.4283
12553 , 0.4283
12678 , 0.4283
12803 , 0.4283
12928 , 0.4283
13053 , 0.4283
13178 , 0.4283
13303 , 0.4283
13428 , 0.4283
13553 , 0.4283
13678 , 0.4283
13803 , 0.4283
13928 , 0.4283
14053 , 0.4283
14178 , 0.4283
14303 , 0.4283
14428 , 0.4283
** ... 480 like lines cut
*Shell Section, elset=Edge-36, material=MAT, controls=EC-1, shell thickness=EdgeDist-36
1., 5
*Elset, elset=Edge-37
12054, 12179, 12304, 12429, 12554, 12679, 12804, 12929, 
13054, 13179, 13304, 13429, 13554, 13679, 13804, 
13929, 14054, 14179, 14304, 14429, 14554, 14679, 
14804, 14929, 15054, 15179, 15304, 15429, 15554, 
15679, 15804, 15929, 16054, 16179, 16304, 16429, 
16554, 16679, 16804, 16929, 17054, 17179, 17304, 
17429, 17554, 17679, 17804, 17929, 18054, 18179, 
18304, 18429, 18554, 18679, 18804, 18929, 19054, 
19179, 19304, 19429, 19554, 19679, 19804, 19929, 
20054, 20179, 20304, 20429, 20554, 20679, 20804, 
20929, 21054, 21179, 21304, 21429, 21554, 21679, 
21804, 21929, 22054, 22179, 22304, 22429, 22554, 
22679, 22804, 22929, 23054, 23179, 23304, 23429, 
23554, 23679, 23804, 23929, 24054, 24179, 24304, 
24429, 12059, 12184, 12309, 12434, 12559, 12684, 
12809, 12934, 13059, 13184, 13309, 13434, 13559, 
13684, 13809, 13934, 14059, 14184, 14309, 14434, 
14559, 14684, 14809, 14934, 15059, 15184, 15309, 
15434, 15559, 15684, 15809, 15934, 16059, 16184, 
16309, 16434, 16559, 16684, 16809, 16934, 17059, 
** ... 52 like lines cut
*Distribution, name=EdgeDist-37, location=ELEMENT, Table=EdgeDist-37_Table
,     1.
12054 , 0.4283
12179 , 0.4283
12304 , 0.4283
12429 , 0.4283
12554 , 0.4283
12679 , 0.4283
12804 , 0.4283
12929 , 0.4283
13054 , 0.4283
13179 , 0.4283
13304 , 0.4283
13429 , 0.4283
13554 , 0.4283
13679 , 0.4283
13804 , 0.4283
13929 , 0.4283
14054 , 0.4283
14179 , 0.4283
14304 , 0.4283
14429 , 0.4283
** ... 480 like lines cut
*Shell Section, elset=Edge-37, material=MAT, controls=EC-1, shell thickness=EdgeDist-37
1., 5
*Elset, elset=Edge-38
12055, 12180, 12305, 12430, 12555, 12680, 12805, 12930, 
13055, 13180, 13305, 13430, 13555, 13680, 13805, 
13930, 14055, 14180, 14305, 14430, 14555, 14680, 
14805, 14930, 15055, 15180, 15305, 15430, 15555, 
15680, 15805, 15930, 16055, 16180, 16305, 16430, 
16555, 16680, 16805, 16930, 17055, 17180, 17305, 
17430, 17555, 17680, 17805, 17930, 18055, 18180, 
18305, 18430, 18555, 18680, 18805, 18930, 19055, 
19180, 19305, 19430, 19555, 19680, 19805, 19930, 
20055, 20180, 20305, 20430, 20555, 20680, 20805, 
20930, 21055, 21180, 21305, 21430, 21555, 21680, 
21805, 21930, 22055, 22180, 22305, 22430, 22555, 
22680, 22805, 22930, 23055, 23180, 23305, 23430, 
23555, 23680, 23805, 23930, 24055, 24180, 24305, 
24430, 12060, 12185, 12310, 12435, 12560, 12685, 
12810, 12935, 13060, 13185, 13310, 13435, 13560, 
13685, 13810, 13935, 14060, 14185, 14310, 14435, 
14560, 14685, 14810, 14935, 15060, 15185, 15310, 
15435, 15560, 15685, 15810, 15935, 16060, 16185, 
16310, 16435, 16560, 16685, 16810, 16935, 17060, 
** ... 52 like lines cut
*Distribution, name=EdgeDist-38, location=ELEMENT, Table=EdgeDist-38_Table
,     1.
12055 , 1.5
12180 , 1.5
12305 , 1.5
12430 , 1.5
12555 , 1.5
12680 , 1.5
12805 , 1.5
12930 , 1.5
13055 , 1.5
13180 , 1.5
13305 , 1.5
13430 , 1.5
13555 , 1.5
13680 , 1.5
13805 , 1.5
13930 , 1.5
14055 , 1.5
14180 , 1.5
14305 , 1.5
14430 , 1.5
** ... 480 like lines cut
*Shell Section, elset=Edge-38, material=MAT, controls=EC-1, shell thickness=EdgeDist-38
1., 5
*Elset, elset=Edge-39
12076, 12201, 12326, 12451, 12576, 12701, 12826, 12951, 
13076, 13201, 13326, 13451, 13576, 13701, 13826, 
13951, 14076, 14201, 14326, 14451, 14576, 14701, 
14826, 14951, 15076, 15201, 15326, 15451, 15576, 
15701, 15826, 15951, 16076, 16201, 16326, 16451, 
16576, 16701, 16826, 16951, 17076, 17201, 17326, 
17451, 17576, 17701, 17826, 17951, 18076, 18201, 
18326, 18451, 18576, 18701, 18826, 18951, 19076, 
19201, 19326, 19451, 19576, 19701, 19826, 19951, 
20076, 20201, 20326, 20451, 20576, 20701, 20826, 
20951, 21076, 21201, 21326, 21451, 21576, 21701, 
21826, 21951, 22076, 22201, 22326, 22451, 22576, 
22701, 22826, 22951, 23076, 23201, 23326, 23451, 
23576, 23701, 23826, 23951, 24076, 24201, 24326, 
24451, 12081, 12206, 12331, 12456, 12581, 12706, 
12831, 12956, 13081, 13206, 13331, 13456, 13581, 
13706, 13831, 13956, 14081, 14206, 14331, 14456, 
14581, 14706, 14831, 14956, 15081, 15206, 15331, 
15456, 15581, 15706, 15831, 15956, 16081, 16206, 
16331, 16456, 16581, 16706, 16831, 16956, 17081, 
** ... 52 like lines cut
*Distribution, name=EdgeDist-39, location=ELEMENT, Table=EdgeDist-39_Table
,     1.
12076 , 1.5
12201 , 1.5
12326 , 1.5
12451 , 1.5
12576 , 1.5
12701 , 1.5
12826 , 1.5
12951 , 1.5
13076 , 1.5
13201 , 1.5
13326 , 1.5
13451 , 1.5
13576 , 1.5
13701 , 1.5
13826 , 1.5
13951 , 1.5
14076 , 1.5
14201 , 1.5
14326 , 1.5
14451 , 1.5
** ... 480 like lines cut
*Shell Section, elset=Edge-39, material=MAT, controls=EC-1, shell thickness=EdgeDist-39
1., 5
*Elset, elset=Edge-40
12077, 12202, 12327, 12452, 12577, 12702, 12827, 12952, 
13077, 13202, 13327, 13452, 13577, 13702, 13827, 
13952, 14077, 14202, 14327, 14452, 14577, 14702, 
14827, 14952, 15077, 15202, 15327, 15452, 15577, 
15702, 15827, 15952, 16077, 16202, 16327, 16452, 
16577, 16702, 16827, 16952, 17077, 17202, 17327, 
17452, 17577, 17702, 17827, 17952, 18077, 18202, 
18327, 18452, 18577, 18702, 18827, 18952, 19077, 
19202, 19327, 19452, 19577, 19702, 19827, 19952, 
20077, 20202, 20327, 20452, 20577, 20702, 20827, 
20952, 21077, 21202, 21327, 21452, 21577, 21702, 
21827, 21952, 22077, 22202, 22327, 22452, 22577, 
22702, 22827, 22952, 23077, 23202, 23327, 23452, 
23577, 23702, 23827, 23952, 24077, 24202, 24327, 
24452, 12082, 12207, 12332, 12457, 12582, 12707, 
12832, 12957, 13082, 13207, 13332, 13457, 13582, 
13707, 13832, 13957, 14082, 14207, 14332, 14457, 
14582, 14707, 14832, 14957, 15082, 15207, 15332, 
15457, 15582, 15707, 15832, 15957, 16082, 16207, 
16332, 16457, 16582, 16707, 16832, 16957, 17082, 
** ... 52 like lines cut
*Distribution, name=EdgeDist-40, location=ELEMENT, Table=EdgeDist-40_Table
,     1.
12077 , 0.4283
12202 , 0.4283
12327 , 0.4283
12452 , 0.4283
12577 , 0.4283
12702 , 0.4283
12827 , 0.4283
12952 , 0.4283
13077 , 0.4283
13202 , 0.4283
13327 , 0.4283
13452 , 0.4283
13577 , 0.4283
13702 , 0.4283
13827 , 0.4283
13952 , 0.4283
14077 , 0.4283
14202 , 0.4283
14327 , 0.4283
14452 , 0.4283
** ... 480 like lines cut
*Shell Section, elset=Edge-40, material=MAT, controls=EC-1, shell thickness=EdgeDist-40
1., 5
*Elset, elset=Edge-41
12078, 12203, 12328, 12453, 12578, 12703, 12828, 12953, 
13078, 13203, 13328, 13453, 13578, 13703, 13828, 
13953, 14078, 14203, 14328, 14453, 14578, 14703, 
14828, 14953, 15078, 15203, 15328, 15453, 15578, 
15703, 15828, 15953, 16078, 16203, 16328, 16453, 
16578, 16703, 16828, 16953, 17078, 17203, 17328, 
17453, 17578, 17703, 17828, 17953, 18078, 18203, 
18328, 18453, 18578, 18703, 18828, 18953, 19078, 
19203, 19328, 19453, 19578, 19703, 19828, 19953, 
20078, 20203, 20328, 20453, 20578, 20703, 20828, 
20953, 21078, 21203, 21328, 21453, 21578, 21703, 
21828, 21953, 22078, 22203, 22328, 22453, 22578, 
22703, 22828, 22953, 23078, 23203, 23328, 23453, 
23578, 23703, 23828, 23953, 24078, 24203, 24328, 
24453, 12083, 12208, 12333, 12458, 12583, 12708, 
12833, 12958, 13083, 13208, 13333, 13458, 13583, 
13708, 13833, 13958, 14083, 14208, 14333, 14458, 
14583, 14708, 14833, 14958, 15083, 15208, 15333, 
15458, 15583, 15708, 15833, 15958, 16083, 16208, 
16333, 16458, 16583, 16708, 16833, 16958, 17083, 
** ... 52 like lines cut
*Distribution, name=EdgeDist-41, location=ELEMENT, Table=EdgeDist-41_Table
,     1.
12078 , 0.4283
12203 , 0.4283
12328 , 0.4283
12453 , 0.4283
12578 , 0.4283
12703 , 0.4283
12828 , 0.4283
12953 , 0.4283
13078 , 0.4283
13203 , 0.4283
13328 , 0.4283
13453 , 0.4283
13578 , 0.4283
13703 , 0.4283
13828 , 0.4283
13953 , 0.4283
14078 , 0.4283
14203 , 0.4283
14328 , 0.4283
14453 , 0.4283
** ... 480 like lines cut
*Shell Section, elset=Edge-41, material=MAT, controls=EC-1, shell thickness=EdgeDist-41
1., 5
*Elset, elset=Edge-42
12079, 12204, 12329, 12454, 12579, 12704, 12829, 12954, 
13079, 13204, 13329, 13454, 13579, 13704, 13829, 
13954, 14079, 14204, 14329, 14454, 14579, 14704, 
14829, 14954, 15079, 15204, 15329, 15454, 15579, 
15704, 15829, 15954, 16079, 16204, 16329, 16454, 
16579, 16704, 16829, 16954, 17079, 17204, 17329, 
17454, 17579, 17704, 17829, 17954, 18079, 18204, 
18329, 18454, 18579, 18704, 18829, 18954, 19079, 
19204, 19329, 19454, 19579, 19704, 19829, 19954, 
20079, 20204, 20329, 20454, 20579, 20704, 20829, 
20954, 21079, 21204, 21329, 21454, 21579, 21704, 
21829, 21954, 22079, 22204, 22329, 22454, 22579, 
22704, 22829, 22954, 23079, 23204, 23329, 23454, 
23579, 23704, 23829, 23954, 24079, 24204, 24329, 
24454, 12084, 12209, 12334, 12459, 12584, 12709, 
12834, 12959, 13084, 13209, 13334, 13459, 13584, 
13709, 13834, 13959, 14084, 14209, 14334, 14459, 
14584, 14709, 14834, 14959, 15084, 15209, 15334, 
15459, 15584, 15709, 15834, 15959, 16084, 16209, 
16334, 16459, 16584, 16709, 16834, 16959, 17084, 
** ... 52 like lines cut
*Distribution, name=EdgeDist-42, location=ELEMENT, Table=EdgeDist-42_Table
,     1.
12079 , 0.4283
12204 , 0.4283
12329 , 0.4283
12454 , 0.4283
12579 , 0.4283
12704 , 0.4283
12829 , 0.4283
12954 , 0.4283
13079 , 0.4283
13204 , 0.4283
13329 , 0.4283
13454 , 0.4283
13579 , 0.4283
13704 , 0.4283
13829 , 0.4283
13954 , 0.4283
14079 , 0.4283
14204 , 0.4283
14329 , 0.4283
14454 , 0.4283
** ... 480 like lines cut
*Shell Section, elset=Edge-42, material=MAT, controls=EC-1, shell thickness=EdgeDist-42
1., 5
*Elset, elset=Edge-43
12080, 12205, 12330, 12455, 12580, 12705, 12830, 12955, 
13080, 13205, 13330, 13455, 13580, 13705, 13830, 
13955, 14080, 14205, 14330, 14455, 14580, 14705, 
14830, 14955, 15080, 15205, 15330, 15455, 15580, 
15705, 15830, 15955, 16080, 16205, 16330, 16455, 
16580, 16705, 16830, 16955, 17080, 17205, 17330, 
17455, 17580, 17705, 17830, 17955, 18080, 18205, 
18330, 18455, 18580, 18705, 18830, 18955, 19080, 
19205, 19330, 19455, 19580, 19705, 19830, 19955, 
20080, 20205, 20330, 20455, 20580, 20705, 20830, 
20955, 21080, 21205, 21330, 21455, 21580, 21705, 
21830, 21955, 22080, 22205, 22330, 22455, 22580, 
22705, 22830, 22955, 23080, 23205, 23330, 23455, 
23580, 23705, 23830, 23955, 24080, 24205, 24330, 
24455, 12085, 12210, 12335, 12460, 12585, 12710, 
12835, 12960, 13085, 13210, 13335, 13460, 13585, 
13710, 13835, 13960, 14085, 14210, 14335, 14460, 
14585, 14710, 14835, 14960, 15085, 15210, 15335, 
15460, 15585, 15710, 15835, 15960, 16085, 16210, 
16335, 16460, 16585, 16710, 16835, 16960, 17085, 
** ... 52 like lines cut
*Distribution, name=EdgeDist-43, location=ELEMENT, Table=EdgeDist-43_Table
,     1.
12080 , 1.5
12205 , 1.5
12330 , 1.5
12455 , 1.5
12580 , 1.5
12705 , 1.5
12830 , 1.5
12955 , 1.5
13080 , 1.5
13205 , 1.5
13330 , 1.5
13455 , 1.5
13580 , 1.5
13705 , 1.5
13830 , 1.5
13955 , 1.5
14080 , 1.5
14205 , 1.5
14330 , 1.5
14455 , 1.5
** ... 480 like lines cut
*Shell Section, elset=Edge-43, material=MAT, controls=EC-1, shell thickness=EdgeDist-43
1., 5
*Elset, elset=Edge-44
12101, 12226, 12351, 12476, 12601, 12726, 12851, 12976, 
13101, 13226, 13351, 13476, 13601, 13726, 13851, 
13976, 14101, 14226, 14351, 14476, 14601, 14726, 
14851, 14976, 15101, 15226, 15351, 15476, 15601, 
15726, 15851, 15976, 16101, 16226, 16351, 16476, 
16601, 16726, 16851, 16976, 17101, 17226, 17351, 
17476, 17601, 17726, 17851, 17976, 18101, 18226, 
18351, 18476, 18601, 18726, 18851, 18976, 19101, 
19226, 19351, 19476, 19601, 19726, 19851, 19976, 
20101, 20226, 20351, 20476, 20601, 20726, 20851, 
20976, 21101, 21226, 21351, 21476, 21601, 21726, 
21851, 21976, 22101, 22226, 22351, 22476, 22601, 
22726, 22851, 22976, 23101, 23226, 23351, 23476, 
23601, 23726, 23851, 23976, 24101, 24226, 24351, 
24476, 12106, 12231, 12356, 12481, 12606, 12731, 
12856, 12981, 13106, 13231, 13356, 13481, 13606, 
13731, 13856, 13981, 14106, 14231, 14356, 14481, 
14606, 14731, 14856, 14981, 15106, 15231, 15356, 
15481, 15606, 15731, 15856, 15981, 16106, 16231, 
16356, 16481, 16606, 16731, 16856, 16981, 17106, 
** ... 52 like lines cut
*Distribution, name=EdgeDist-44, location=ELEMENT, Table=EdgeDist-44_Table
,     1.
12101 , 1.5
12226 , 1.5
12351 , 1.5
12476 , 1.5
12601 , 1.5
12726 , 1.5
12851 , 1.5
12976 , 1.5
13101 , 1.5
13226 , 1.5
13351 , 1.5
13476 , 1.5
13601 , 1.5
13726 , 1.5
13851 , 1.5
13976 , 1.5
14101 , 1.5
14226 , 1.5
14351 , 1.5
14476 , 1.5
** ... 480 like lines cut
*Shell Section, elset=Edge-44, material=MAT, controls=EC-1, shell thickness=EdgeDist-44
1., 5
*Elset, elset=Edge-45
12102, 12227, 12352, 12477, 12602, 12727, 12852, 12977, 
13102, 13227, 13352, 13477, 13602, 13727, 13852, 
13977, 14102, 14227, 14352, 14477, 14602, 14727, 
14852, 14977, 15102, 15227, 15352, 15477, 15602, 
15727, 15852, 15977, 16102, 16227, 16352, 16477, 
16602, 16727, 16852, 16977, 17102, 17227, 17352, 
17477, 17602, 17727, 17852, 17977, 18102, 18227, 
18352, 18477, 18602, 18727, 18852, 18977, 19102, 
19227, 19352, 19477, 19602, 19727, 19852, 19977, 
20102, 20227, 20352, 20477, 20602, 20727, 20852, 
20977, 21102, 21227, 21352, 21477, 21602, 21727, 
21852, 21977, 22102, 22227, 22352, 22477, 22602, 
22727, 22852, 22977, 23102, 23227, 23352, 23477, 
23602, 23727, 23852, 23977, 24102, 24227, 24352, 
24477, 12107, 12232, 12357, 12482, 12607, 12732, 
12857, 12982, 13107, 13232, 13357, 13482, 13607, 
13732, 13857, 13982, 14107, 14232, 14357, 14482, 
14607, 14732, 14857, 14982, 15107, 15232, 15357, 
15482, 15607, 15732, 15857, 15982, 16107, 16232, 
16357, 16482, 16607, 16732, 16857, 16982, 17107, 
** ... 52 like lines cut
*Distribution, name=EdgeDist-45, location=ELEMENT, Table=EdgeDist-45_Table
,     1.
12102 , 0.4283
12227 , 0.4283
12352 , 0.4283
12477 , 0.4283
12602 , 0.4283
12727 , 0.4283
12852 , 0.4283
12977 , 0.4283
13102 , 0.4283
13227 , 0.4283
13352 , 0.4283
13477 , 0.4283
13602 , 0.4283
13727 , 0.4283
13852 , 0.4283
13977 , 0.4283
14102 , 0.4283
14227 , 0.4283
14352 , 0.4283
14477 , 0.4283
** ... 480 like lines cut
*Shell Section, elset=Edge-45, material=MAT, controls=EC-1, shell thickness=EdgeDist-45
1., 5
*Elset, elset=Edge-46
12103, 12228, 12353, 12478, 12603, 12728, 12853, 12978, 
13103, 13228, 13353, 13478, 13603, 13728, 13853, 
13978, 14103, 14228, 14353, 14478, 14603, 14728, 
14853, 14978, 15103, 15228, 15353, 15478, 15603, 
15728, 15853, 15978, 16103, 16228, 16353, 16478, 
16603, 16728, 16853, 16978, 17103, 17228, 17353, 
17478, 17603, 17728, 17853, 17978, 18103, 18228, 
18353, 18478, 18603, 18728, 18853, 18978, 19103, 
19228, 19353, 19478, 19603, 19728, 19853, 19978, 
20103, 20228, 20353, 20478, 20603, 20728, 20853, 
20978, 21103, 21228, 21353, 21478, 21603, 21728, 
21853, 21978, 22103, 22228, 22353, 22478, 22603, 
22728, 22853, 22978, 23103, 23228, 23353, 23478, 
23603, 23728, 23853, 23978, 24103, 24228, 24353, 
24478, 12108, 12233, 12358, 12483, 12608, 12733, 
12858, 12983, 13108, 13233, 13358, 13483, 13608, 
13733, 13858, 13983, 14108, 14233, 14358, 14483, 
14608, 14733, 14858, 14983, 15108, 15233, 15358, 
15483, 15608, 15733, 15858, 15983, 16108, 16233, 
16358, 16483, 16608, 16733, 16858, 16983, 17108, 
** ... 52 like lines cut
*Distribution, name=EdgeDist-46, location=ELEMENT, Table=EdgeDist-46_Table
,     1.
12103 , 0.4283
12228 , 0.4283
12353 , 0.4283
12478 , 0.4283
12603 , 0.4283
12728 , 0.4283
12853 , 0.4283
12978 , 0.4283
13103 , 0.4283
13228 , 0.4283
13353 , 0.4283
13478 , 0.4283
13603 , 0.4283
13728 , 0.4283
13853 , 0.4283
13978 , 0.4283
14103 , 0.4283
14228 , 0.4283
14353 , 0.4283
14478 , 0.4283
** ... 480 like lines cut
*Shell Section, elset=Edge-46, material=MAT, controls=EC-1, shell thickness=EdgeDist-46
1., 5
*Elset, elset=Edge-47
12104, 12229, 12354, 12479, 12604, 12729, 12854, 12979, 
13104, 13229, 13354, 13479, 13604, 13729, 13854, 
13979, 14104, 14229, 14354, 14479, 14604, 14729, 
14854, 14979, 15104, 15229, 15354, 15479, 15604, 
15729, 15854, 15979, 16104, 16229, 16354, 16479, 
16604, 16729, 16854, 16979, 17104, 17229, 17354, 
17479, 17604, 17729, 17854, 17979, 18104, 18229, 
18354, 18479, 18604, 18729, 18854, 18979, 19104, 
19229, 19354, 19479, 19604, 19729, 19854, 19979, 
20104, 20229, 20354, 20479, 20604, 20729, 20854, 
20979, 21104, 21229, 21354, 21479, 21604, 21729, 
21854, 21979, 22104, 22229, 22354, 22479, 22604, 
22729, 22854, 22979, 23104, 23229, 23354, 23479, 
23604, 23729, 23854, 23979, 24104, 24229, 24354, 
24479, 12109, 12234, 12359, 12484, 12609, 12734, 
12859, 12984, 13109, 13234, 13359, 13484, 13609, 
13734, 13859, 13984, 14109, 14234, 14359, 14484, 
14609, 14734, 14859, 14984, 15109, 15234, 15359, 
15484, 15609, 15734, 15859, 15984, 16109, 16234, 
16359, 16484, 16609, 16734, 16859, 16984, 17109, 
** ... 52 like lines cut
*Distribution, name=EdgeDist-47, location=ELEMENT, Table=EdgeDist-47_Table
,     1.
12104 , 0.4283
12229 , 0.4283
12354 , 0.4283
12479 , 0.4283
12604 , 0.4283
12729 , 0.4283
12854 , 0.4283
12979 , 0.4283
13104 , 0.4283
13229 , 0.4283
13354 , 0.4283
13479 , 0.4283
13604 , 0.4283
13729 , 0.4283
13854 , 0.4283
13979 , 0.4283
14104 , 0.4283
14229 , 0.4283
14354 , 0.4283
14479 , 0.4283
** ... 480 like lines cut
*Shell Section, elset=Edge-47, material=MAT, controls=EC-1, shell thickness=EdgeDist-47
1., 5
*Elset, elset=Edge-48
12105, 12230, 12355, 12480, 12605, 12730, 12855, 12980, 
13105, 13230, 13355, 13480, 13605, 13730, 13855, 
13980, 14105, 14230, 14355, 14480, 14605, 14730, 
14855, 14980, 15105, 15230, 15355, 15480, 15605, 
15730, 15855, 15980, 16105, 16230, 16355, 16480, 
16605, 16730, 16855, 16980, 17105, 17230, 17355, 
17480, 17605, 17730, 17855, 17980, 18105, 18230, 
18355, 18480, 18605, 18730, 18855, 18980, 19105, 
19230, 19355, 19480, 19605, 19730, 19855, 19980, 
20105, 20230, 20355, 20480, 20605, 20730, 20855, 
20980, 21105, 21230, 21355, 21480, 21605, 21730, 
21855, 21980, 22105, 22230, 22355, 22480, 22605, 
22730, 22855, 22980, 23105, 23230, 23355, 23480, 
23605, 23730, 23855, 23980, 24105, 24230, 24355, 
24480, 12110, 12235, 12360, 12485, 12610, 12735, 
12860, 12985, 13110, 13235, 13360, 13485, 13610, 
13735, 13860, 13985, 14110, 14235, 14360, 14485, 
14610, 14735, 14860, 14985, 15110, 15235, 15360, 
15485, 15610, 15735, 15860, 15985, 16110, 16235, 
16360, 16485, 16610, 16735, 16860, 16985, 17110, 
** ... 52 like lines cut
*Distribution, name=EdgeDist-48, location=ELEMENT, Table=EdgeDist-48_Table
,     1.
12105 , 1.5
12230 , 1.5
12355 , 1.5
12480 , 1.5
12605 , 1.5
12730 , 1.5
12855 , 1.5
12980 , 1.5
13105 , 1.5
13230 , 1.5
13355 , 1.5
13480 , 1.5
13605 , 1.5
13730 , 1.5
13855 , 1.5
13980 , 1.5
14105 , 1.5
14230 , 1.5
14355 , 1.5
14480 , 1.5
** ... 480 like lines cut
*Shell Section, elset=Edge-48, material=MAT, controls=EC-1, shell thickness=EdgeDist-48
1., 5
*Elset, elset=SOLID
1, 121, 241, 361, 481, 601, 721, 841, 
961, 1081, 1201, 1321, 1441, 1561, 1681, 
1801, 1921, 2041, 2161, 2281, 2401, 2521, 
2641, 2761, 2881, 3001, 3121, 3241, 3361, 
3481, 3601, 3721, 3841, 3961, 4081, 4201, 
4321, 4441, 4561, 4681, 4801, 4921, 5041, 
5161, 5281, 5401, 5521, 5641, 5761, 5881, 
6001, 6121, 6241, 6361, 6481, 6601, 6721, 
6841, 6961, 7081, 7201, 7321, 7441, 7561, 
7681, 7801, 7921, 8041, 8161, 8281, 8401, 
8521, 8641, 8761, 8881, 9001, 9121, 9241, 
9361, 9481, 9601, 9721, 9841, 9961, 10081, 
10201, 10321, 10441, 10561, 10681, 10801, 10921, 
11041, 11161, 11281, 11401, 11521, 11641, 11761, 
11881, 2, 122, 242, 362, 482, 602, 
722, 842, 962, 1082, 1202, 1322, 1442, 
1562, 1682, 1802, 1922, 2042, 2162, 2282, 
2402, 2522, 2642, 2762, 2882, 3002, 3122, 
3242, 3362, 3482, 3602, 3722, 3842, 3962, 
4082, 4202, 4322, 4442, 4562, 4682, 4802, 
** ... 3480 like lines cut
*Nset, nset=BOT_tie
1, 2, 3, 4, 5, 6, 7, 8, 
9, 10, 11, 12, 13, 14, 15, 
16, 17, 18, 19, 20, 21, 22, 
23, 24, 25, 26, 27, 28, 29, 
30, 31, 32, 33, 34, 35, 36, 
37, 38, 39, 40, 41, 42, 43, 
44, 45, 46, 47, 48, 49, 50, 
51, 52, 53, 54, 55, 56, 57, 
58, 59, 60, 61, 62, 63, 64, 
65, 66, 67, 68, 69, 70, 71, 
72, 73, 74, 75, 76, 77, 78, 
79, 80, 81, 82, 83, 84, 85, 
86, 87, 88, 89, 90, 91, 92, 
93, 94, 95, 96, 97, 98, 99, 
100, 101, 102, 103, 104, 105, 106, 
107, 108, 109, 110, 111, 112, 113, 
114, 115, 116, 117, 118, 119, 120, 
121, 122, 123, 124, 125, 126, 127, 
128, 129, 130, 131, 132, 133, 134, 
135, 136, 137, 138, 139, 140, 141, 
** ... 58 like lines cut
*Nset, nset=TOP_tie
54601, 54602, 54603, 54604, 54605, 54606, 54607, 54608, 
54609, 54610, 54611, 54612, 54613, 54614, 54615, 
54616, 54617, 54618, 54619, 54620, 54621, 54622, 
54623, 54624, 54625, 54626, 54627, 54628, 54629, 
54630, 54631, 54632, 54633, 54634, 54635, 54636, 
54637, 54638, 54639, 54640, 54641, 54642, 54643, 
54644, 54645, 54646, 54647, 54648, 54649, 54650, 
54651, 54652, 54653, 54654, 54655, 54656, 54657, 
54658, 54659, 54660, 54661, 54662, 54663, 54664, 
54665, 54666, 54667, 54668, 54669, 54670, 54671, 
54672, 54673, 54674, 54675, 54676, 54677, 54678, 
54679, 54680, 54681, 54682, 54683, 54684, 54685, 
54686, 54687, 54688, 54689, 54690, 54691, 54692, 
54693, 54694, 54695, 54696, 54697, 54698, 54699, 
54700, 54701, 54702, 54703, 54704, 54705, 54706, 
54707, 54708, 54709, 54710, 54711, 54712, 54713, 
54714, 54715, 54716, 54717, 54718, 54719, 54720, 
54721, 54722, 54723, 54724, 54725, 54726, 54727, 
54728, 54729, 54730, 54731, 54732, 54733, 54734, 
54735, 54736, 54737, 54738, 54739, 54740, 54741, 
** ... 58 like lines cut
*End Part
*Heading
** Job name: BoundaryCond Model name: BoundaryConditions
** Generated by: Abaqus/CAE 2020
*Preprint, echo=NO, model=NO, history=NO, contact=NO
**
** PARTS
**
*Part, name=Plate
*Node
      1,           0.,           0.,           0.
      2,          10.,           0.,           0.
      3,          20.,           0.,           0.
      4,          30.,           0.,           0.
      5,          40.,           0.,           0.
      6,          50.,           0.,           0.
      7,          60.,           0.,           0.
      8,          70.,           0.,           0.
      9,          80.,           0.,           0.
     10,          90.,           0.,           0.
     11,         100.,           0.,           0.
     12,           0.,          10.,           0.
     13,          10.,          10.,           0.
     14,          20.,          10.,           0.
     15,          30.,          10.,           0.
     16,          40.,          10.,           0.
     17,          50.,          10.,           0.
     18,          60.,          10.,           0.
     19,          70.,          10.,           0.
     20,          80.,          10.,           0.
** ... 123 like lines cut
*Element, type=R3D4
  1,   1,   2,  13,  12
  2,   2,   3,  14,  13
  3,   3,   4,  15,  14
  4,   4,   5,  16,  15
  5,   5,   6,  17,  16
  6,   6,   7,  18,  17
  7,   7,   8,  19,  18
  8,   8,   9,  20,  19
  9,   9,  10,  21,  20
 10,  10,  11,  22,  21
 11,  12,  13,  24,  23
 12,  13,  14,  25,  24
 13,  14,  15,  26,  25
 14,  15,  16,  27,  26
 15,  16,  17,  28,  27
 16,  17,  18,  29,  28
 17,  18,  19,  30,  29
 18,  19,  20,  31,  30
 19,  20,  21,  32,  31
 20,  21,  22,  33,  32
** ... 100 like lines cut
*Node
    144,          50.,          60.,           0.
*Nset, nset=Plate-RefPt_, internal
144, 
*Nset, nset=_PickedSet6, internal
 144,
*Element, type=MASS, elset=_PickedSet6_Mass_
121, 144
*Mass, elset=_PickedSet6_Mass_
0.5, 
*End Part
**  
**
** ASSEMBLY
**
*Assembly, name=Assembly
*Instance, name=PART-1-1, part=PART-1
*End Instance
**  
*Instance, name=Plate-1, part=Plate
        -10.,         -10.,         400.
*End Instance
**  
*Instance, name=Plate-2, part=Plate
        -10.,         -10.,           0.
*End Instance
**  
*Nset, nset=_PickedSet8, internal, instance=Plate-2
 144,
*Nset, nset=_PickedSet9, internal, instance=Plate-2
 144,
*Nset, nset=_PickedSet10, internal, instance=Plate-2, generate
   1,  143,    1
*Elset, elset=_PickedSet10, internal, instance=Plate-2, generate
   1,  120,    1
*Nset, nset=_PickedSet11, internal, instance=Plate-1
 144,
*Nset, nset=_PickedSet12, internal, instance=Plate-1, generate
   1,  143,    1
*Elset, elset=_PickedSet12, internal, instance=Plate-1, generate
   1,  120,    1
*Nset, nset=_PickedSet13, internal, instance=Plate-1
 144,
*Nset, nset=_PickedSet14, internal, instance=Plate-1
 144,
** Constraint: Constraint-1
*Rigid Body, ref node=_PickedSet9, elset=_PickedSet10
** Constraint: Constraint-2
*Rigid Body, ref node=_PickedSet11, elset=_PickedSet12
*End Assembly
*Distribution Table, name=EdgeDist-0_Table
length
*Distribution Table, name=EdgeDist-1_Table
length
*Distribution Table, name=EdgeDist-2_Table
length
*Distribution Table, name=EdgeDist-3_Table
length
*Distribution Table, name=EdgeDist-4_Table
length
*Distribution Table, name=EdgeDist-5_Table
length
*Distribution Table, name=EdgeDist-6_Table
length
*Distribution Table, name=EdgeDist-7_Table
length
*Distribution Table, name=EdgeDist-8_Table
length
*Distribution Table, name=EdgeDist-9_Table
length
*Distribution Table, name=EdgeDist-10_Table
length
*Distribution Table, name=EdgeDist-11_Table
length
*Distribution Table, name=EdgeDist-12_Table
length
*Distribution Table, name=EdgeDist-13_Table
length
*Distribution Table, name=EdgeDist-14_Table
length
*Distribution Table, name=EdgeDist-15_Table
length
*Distribution Table, name=EdgeDist-16_Table
length
*Distribution Table, name=EdgeDist-17_Table
length
*Distribution Table, name=EdgeDist-18_Table
length
*Distribution Table, name=EdgeDist-19_Table
length
*Distribution Table, name=EdgeDist-20_Table
length
*Distribution Table, name=EdgeDist-21_Table
length
*Distribution Table, name=EdgeDist-22_Table
length
*Distribution Table, name=EdgeDist-23_Table
length
*Distribution Table, name=EdgeDist-24_Table
length
*Distribution Table, name=EdgeDist-25_Table
length
*Distribution Table, name=EdgeDist-26_Table
length
*Distribution Table, name=EdgeDist-27_Table
length
*Distribution Table, name=EdgeDist-28_Table
length
*Distribution Table, name=EdgeDist-29_Table
length
*Distribution Table, name=EdgeDist-30_Table
length
*Distribution Table, name=EdgeDist-31_Table
length
*Distribution Table, name=EdgeDist-32_Table
length
*Distribution Table, name=EdgeDist-33_Table
length
*Distribution Table, name=EdgeDist-34_Table
length
*Distribution Table, name=EdgeDist-35_Table
length
*Distribution Table, name=EdgeDist-36_Table
length
*Distribution Table, name=EdgeDist-37_Table
length
*Distribution Table, name=EdgeDist-38_Table
length
*Distribution Table, name=EdgeDist-39_Table
length
*Distribution Table, name=EdgeDist-40_Table
length
*Distribution Table, name=EdgeDist-41_Table
length
*Distribution Table, name=EdgeDist-42_Table
length
*Distribution Table, name=EdgeDist-43_Table
length
*Distribution Table, name=EdgeDist-44_Table
length
*Distribution Table, name=EdgeDist-45_Table
length
*Distribution Table, name=EdgeDist-46_Table
length
*Distribution Table, name=EdgeDist-47_Table
length
*Distribution Table, name=EdgeDist-48_Table
length
*Section Controls, name=EC-1, ELEMENT DELETION=YES
1., 1., 1.
** 
** MATERIALS
** 
*Material, name=MAT
*Density
 2.7e-09,
*Elastic
70000., 0.33
*Plastic
  180.,   0.
  190., 0.01
  197., 0.02
 211.5, 0.05
 225.8,  0.1
 233.6, 0.15
 238.5,  0.2
 248.5,  0.4
** 
** INTERACTION PROPERTIES
** 
*Surface Interaction, name=INTPROP-1
*Friction
 0.5,
*Surface Behavior, pressure-overclosure=HARD
** 
** BOUNDARY CONDITIONS
** 
** Name: BC-1 Type: Symmetry/Antisymmetry/Encastre
*Boundary
_PickedSet8, ENCASTRE
** Name: BC-2 Type: Displacement/Rotation
*Boundary
_PickedSet13, 1, 1
_PickedSet13, 2, 2
_PickedSet13, 4, 4
_PickedSet13, 5, 5
_PickedSet13, 6, 6
** 
** PREDEFINED FIELDS
** 
** Name: InitialVelocity   Type: Velocity
*Initial Conditions, type=VELOCITY
_PickedSet14, 3, -5000.
** 
** INTERACTIONS
** 
** Interaction: Int-1
*Contact, op=NEW
*Contact Inclusions, ALL EXTERIOR
*Contact Property Assignment
 ,  , INTPROP-1
** ----------------------------------------------------------------
** 
** STEP: Step-1
** 
*Step, name=Step-1, nlgeom=YES
*Dynamic, Explicit
, 0.01
*Bulk Viscosity
0.06, 1.2
** Mass Scaling: Semi-Automatic
**               Whole Model
*Fixed Mass Scaling, dt=2e-07, type=below min
** 
** OUTPUT REQUESTS
** 
*Restart, write, number interval=1, time marks=NO
** 
** FIELD OUTPUT: F-Output-1
** 
*Output, field
*Node Output
U, 
*Element Output, directions=YES
DMICRT, ELEN, PEEQ, S, SDEG, STATUS, STH
** 
** HISTORY OUTPUT: H-Output-1
** 
*Output, history, variable=PRESELECT
*End Step
